<edges>
	<edge id="335052156_5151492622_277265854_5151492622" from="5151492622" to="307174561" numLanes="1" speed="13.89" />
	<edge id="335052156_5151492622_277265854_307174561" from="307174561" to="6304095" numLanes="1" speed="13.89" />
	<edge id="335052156_5151492622_277265854_6304095" from="6304095" to="277265858" numLanes="1" speed="13.89" />
	<edge id="335052156_5151492622_277265854_277265858" from="277265858" to="2572910091" numLanes="1" speed="13.89" />
	<edge id="335052156_5151492622_277265854_2572910091" from="2572910091" to="277265855" numLanes="1" speed="13.89" />
	<edge id="335052156_5151492622_277265854_277265855" from="277265855" to="277265854" numLanes="1" speed="13.89" />
	<edge id="42351174_528733587_528733583_528733587" from="528733587" to="2375495330" numLanes="1" speed="13.89" />
	<edge id="42351174_528733587_528733583_2375495330" from="2375495330" to="528733585" numLanes="1" speed="13.89" />
	<edge id="42351174_528733587_528733583_528733585" from="528733585" to="2375495328" numLanes="1" speed="13.89" />
	<edge id="42351174_528733587_528733583_2375495328" from="2375495328" to="2375495326" numLanes="1" speed="13.89" />
	<edge id="42351174_528733587_528733583_2375495326" from="2375495326" to="528733583" numLanes="1" speed="13.89" />
	<edge id="50728198_248088241_248382518_248088241" from="248088241" to="3273711132" numLanes="1" speed="13.89" />
	<edge id="50728198_248088241_248382518_3273711132" from="3273711132" to="248382518" numLanes="1" speed="13.89" />
	<edge id="70698346_843308020_798843312_843308020" from="843308020" to="798843312" numLanes="1" speed="13.89" />
	<edge id="39436715_472383956_472383955_472383956" from="472383956" to="472383955" numLanes="1" speed="13.89" />
	<edge id="106974039_1230016459_1230016495_1230016459" from="1230016459" to="2686926134" numLanes="1" speed="13.89" />
	<edge id="106974039_1230016459_1230016495_2686926134" from="2686926134" to="1230016502" numLanes="1" speed="13.89" />
	<edge id="106974039_1230016459_1230016495_1230016502" from="1230016502" to="2686926137" numLanes="1" speed="13.89" />
	<edge id="106974039_1230016459_1230016495_2686926137" from="2686926137" to="1230016402" numLanes="1" speed="13.89" />
	<edge id="106974039_1230016459_1230016495_1230016402" from="1230016402" to="1230016495" numLanes="1" speed="13.89" />
	<edge id="106974219_1230024594_1230024619_1230024594" from="1230024594" to="1230024619" numLanes="1" speed="13.89" />
	<edge id="61047422_12114972_60936301_12114972" from="12114972" to="2967255867" numLanes="3" speed="27.78" />
	<edge id="61047422_12114972_60936301_2967255867" from="2967255867" to="2967255865" numLanes="3" speed="27.78" />
	<edge id="61047422_12114972_60936301_2967255865" from="2967255865" to="2967255863" numLanes="3" speed="27.78" />
	<edge id="61047422_12114972_60936301_2967255863" from="2967255863" to="2967255860" numLanes="3" speed="27.78" />
	<edge id="61047422_12114972_60936301_2967255860" from="2967255860" to="60936295" numLanes="3" speed="27.78" />
	<edge id="61047422_12114972_60936301_60936295" from="60936295" to="2967255858" numLanes="3" speed="27.78" />
	<edge id="61047422_12114972_60936301_2967255858" from="2967255858" to="60936294" numLanes="3" speed="27.78" />
	<edge id="61047422_12114972_60936301_60936294" from="60936294" to="12114969" numLanes="3" speed="27.78" />
	<edge id="61047422_12114972_60936301_12114969" from="12114969" to="60936301" numLanes="3" speed="27.78" />
	<edge id="356473663_3619139704_3619139703_3619139704" from="3619139704" to="4281232589" numLanes="1" speed="8.33" />
	<edge id="356473663_3619139704_3619139703_4281232589" from="4281232589" to="6565261109" numLanes="1" speed="8.33" />
	<edge id="356473663_3619139704_3619139703_6565261109" from="6565261109" to="3619139703" numLanes="1" speed="8.33" />
	<edge id="349887382_3556717788_3619139704_3556717788" from="3556717788" to="4281231082" numLanes="1" speed="8.33" />
	<edge id="349887382_3556717788_3619139704_4281231082" from="4281231082" to="3619139704" numLanes="1" speed="8.33" />
	<edge id="74190080_877556712_877556583_877556712" from="877556712" to="877556754" numLanes="1" speed="13.89" />
	<edge id="74190080_877556712_877556583_877556754" from="877556754" to="2686868958" numLanes="1" speed="13.89" />
	<edge id="74190080_877556712_877556583_2686868958" from="2686868958" to="2686868957" numLanes="1" speed="13.89" />
	<edge id="74190080_877556712_877556583_2686868957" from="2686868957" to="877556583" numLanes="1" speed="13.89" />
	<edge id="3785900_18896240_18896244_18896240" from="18896240" to="18896244" numLanes="1" speed="13.89" />
	<edge id="22768286_244420999_385682_244420999" from="244420999" to="385682" numLanes="2" speed="13.89" />
	<edge id="42350333_528721686_528721690_528721686" from="528721686" to="528721687" numLanes="1" speed="13.89" />
	<edge id="42350333_528721686_528721690_528721687" from="528721687" to="2372746805" numLanes="1" speed="13.89" />
	<edge id="42350333_528721686_528721690_2372746805" from="2372746805" to="528721688" numLanes="1" speed="13.89" />
	<edge id="42350333_528721686_528721690_528721688" from="528721688" to="2372746804" numLanes="1" speed="13.89" />
	<edge id="42350333_528721686_528721690_2372746804" from="2372746804" to="2372746803" numLanes="1" speed="13.89" />
	<edge id="42350333_528721686_528721690_2372746803" from="2372746803" to="528721690" numLanes="1" speed="13.89" />
	<edge id="3701394_5546738414_1261484560_5546738414" from="5546738414" to="2572910147" numLanes="1" speed="13.89" />
	<edge id="3701394_5546738414_1261484560_2572910147" from="2572910147" to="6797473813" numLanes="1" speed="13.89" />
	<edge id="3701394_5546738414_1261484560_6797473813" from="6797473813" to="2572910149" numLanes="1" speed="13.89" />
	<edge id="3701394_5546738414_1261484560_2572910149" from="2572910149" to="2572910152" numLanes="1" speed="13.89" />
	<edge id="3701394_5546738414_1261484560_2572910152" from="2572910152" to="2572910154" numLanes="1" speed="13.89" />
	<edge id="3701394_5546738414_1261484560_2572910154" from="2572910154" to="6304069" numLanes="1" speed="13.89" />
	<edge id="3701394_5546738414_1261484560_6304069" from="6304069" to="2572910160" numLanes="1" speed="13.89" />
	<edge id="3701394_5546738414_1261484560_2572910160" from="2572910160" to="528743438" numLanes="1" speed="13.89" />
	<edge id="3701394_5546738414_1261484560_528743438" from="528743438" to="6304063" numLanes="1" speed="13.89" />
	<edge id="3701394_5546738414_1261484560_6304063" from="6304063" to="1261484560" numLanes="1" speed="13.89" />
	<edge id="72243490_291447152_12239514_291447152" from="291447152" to="2688753861" numLanes="2" speed="16.67" />
	<edge id="72243490_291447152_12239514_2688753861" from="2688753861" to="615213593" numLanes="2" speed="16.67" />
	<edge id="72243490_291447152_12239514_615213593" from="615213593" to="5083532871" numLanes="2" speed="16.67" />
	<edge id="72243490_291447152_12239514_5083532871" from="5083532871" to="385761" numLanes="2" speed="16.67" />
	<edge id="72243490_291447152_12239514_385761" from="385761" to="2962705683" numLanes="2" speed="16.67" />
	<edge id="72243490_291447152_12239514_2962705683" from="2962705683" to="255966943" numLanes="2" speed="16.67" />
	<edge id="72243490_291447152_12239514_255966943" from="255966943" to="2688753856" numLanes="2" speed="16.67" />
	<edge id="72243490_291447152_12239514_2688753856" from="2688753856" to="27185145" numLanes="2" speed="16.67" />
	<edge id="72243490_291447152_12239514_27185145" from="27185145" to="2688753854" numLanes="2" speed="16.67" />
	<edge id="72243490_291447152_12239514_2688753854" from="2688753854" to="243919855" numLanes="2" speed="16.67" />
	<edge id="72243490_291447152_12239514_243919855" from="243919855" to="2688753851" numLanes="2" speed="16.67" />
	<edge id="72243490_291447152_12239514_2688753851" from="2688753851" to="385760" numLanes="2" speed="16.67" />
	<edge id="72243490_291447152_12239514_385760" from="385760" to="615214347" numLanes="2" speed="16.67" />
	<edge id="72243490_291447152_12239514_615214347" from="615214347" to="243919853" numLanes="2" speed="16.67" />
	<edge id="72243490_291447152_12239514_243919853" from="243919853" to="2688753850" numLanes="2" speed="16.67" />
	<edge id="72243490_291447152_12239514_2688753850" from="2688753850" to="27465299" numLanes="2" speed="16.67" />
	<edge id="72243490_291447152_12239514_27465299" from="27465299" to="2688753848" numLanes="2" speed="16.67" />
	<edge id="72243490_291447152_12239514_2688753848" from="2688753848" to="243919851" numLanes="2" speed="16.67" />
	<edge id="72243490_291447152_12239514_243919851" from="243919851" to="2688777051" numLanes="2" speed="16.67" />
	<edge id="72243490_291447152_12239514_2688777051" from="2688777051" to="385759" numLanes="2" speed="16.67" />
	<edge id="72243490_291447152_12239514_385759" from="385759" to="2562193538" numLanes="2" speed="16.67" />
	<edge id="72243490_291447152_12239514_2562193538" from="2562193538" to="243919850" numLanes="2" speed="16.67" />
	<edge id="72243490_291447152_12239514_243919850" from="243919850" to="2562193536" numLanes="2" speed="16.67" />
	<edge id="72243490_291447152_12239514_2562193536" from="2562193536" to="12239514" numLanes="2" speed="16.67" />
	<edge id="73306096_869465086_869465084_869465086" from="869465086" to="869465120" numLanes="2" speed="16.67" />
	<edge id="73306096_869465086_869465084_869465120" from="869465120" to="869465096" numLanes="2" speed="16.67" />
	<edge id="73306096_869465086_869465084_869465096" from="869465096" to="869465084" numLanes="2" speed="16.67" />
	<edge id="333903171_1230024612_249200528_1230024612" from="1230024612" to="5555502401" numLanes="1" speed="13.89" />
	<edge id="333903171_1230024612_249200528_5555502401" from="5555502401" to="249200528" numLanes="1" speed="13.89" />
	<edge id="7989992_18896260_528733712_18896260" from="18896260" to="2686899205" numLanes="1" speed="13.89" />
	<edge id="7989992_18896260_528733712_2686899205" from="2686899205" to="2686899230" numLanes="1" speed="13.89" />
	<edge id="7989992_18896260_528733712_2686899230" from="2686899230" to="2686899235" numLanes="1" speed="13.89" />
	<edge id="7989992_18896260_528733712_2686899235" from="2686899235" to="2686899237" numLanes="1" speed="13.89" />
	<edge id="7989992_18896260_528733712_2686899237" from="2686899237" to="2686899240" numLanes="1" speed="13.89" />
	<edge id="7989992_18896260_528733712_2686899240" from="2686899240" to="528733712" numLanes="1" speed="13.89" />
	<edge id="335052153_3631957996_254019346_3631957996" from="3631957996" to="254019346" numLanes="3" speed="16.67" />
	<edge id="73306097_869465118_869465122_869465118" from="869465118" to="869465104" numLanes="2" speed="16.67" />
	<edge id="73306097_869465118_869465122_869465104" from="869465104" to="869465093" numLanes="2" speed="16.67" />
	<edge id="73306097_869465118_869465122_869465093" from="869465093" to="869465123" numLanes="2" speed="16.67" />
	<edge id="73306097_869465118_869465122_869465123" from="869465123" to="869465122" numLanes="2" speed="16.67" />
	<edge id="369273040_3730758553_3730758551_3730758553" from="3730758553" to="3730758552" numLanes="1" speed="8.33" />
	<edge id="369273040_3730758553_3730758551_3730758552" from="3730758552" to="3730758551" numLanes="1" speed="8.33" />
	<edge id="228612595_5555537625_2372746783_5555537625" from="5555537625" to="2372746788" numLanes="1" speed="13.89" />
	<edge id="228612595_5555537625_2372746783_2372746788" from="2372746788" to="2372746783" numLanes="1" speed="13.89" />
	<edge id="48748968_292975017_618699183_292975017" from="292975017" to="818880758" numLanes="1" speed="13.89" />
	<edge id="48748968_292975017_618699183_818880758" from="818880758" to="618699183" numLanes="1" speed="13.89" />
	<edge id="335052155_3421809961_11675519_3421809961" from="3421809961" to="4022423189" numLanes="2" speed="16.67" />
	<edge id="335052155_3421809961_11675519_4022423189" from="4022423189" to="2686899305" numLanes="2" speed="16.67" />
	<edge id="335052155_3421809961_11675519_2686899305" from="2686899305" to="4022407970" numLanes="2" speed="16.67" />
	<edge id="335052155_3421809961_11675519_4022407970" from="4022407970" to="4022407977" numLanes="2" speed="16.67" />
	<edge id="335052155_3421809961_11675519_4022407977" from="4022407977" to="4022407982" numLanes="2" speed="16.67" />
	<edge id="335052155_3421809961_11675519_4022407982" from="4022407982" to="249193365" numLanes="2" speed="16.67" />
	<edge id="335052155_3421809961_11675519_249193365" from="249193365" to="2686899303" numLanes="2" speed="16.67" />
	<edge id="335052155_3421809961_11675519_2686899303" from="2686899303" to="12115824" numLanes="2" speed="16.67" />
	<edge id="335052155_3421809961_11675519_12115824" from="12115824" to="2686899298" numLanes="2" speed="16.67" />
	<edge id="335052155_3421809961_11675519_2686899298" from="2686899298" to="11675519" numLanes="2" speed="16.67" />
	<edge id="428992626_4281236993_4281231686_4281236993" from="4281236993" to="4281236992" numLanes="1" speed="8.33" />
	<edge id="428992626_4281236993_4281231686_4281236992" from="4281236992" to="6304372988" numLanes="1" speed="8.33" />
	<edge id="428992626_4281236993_4281231686_6304372988" from="6304372988" to="4281236989" numLanes="1" speed="8.33" />
	<edge id="428992626_4281236993_4281231686_4281236989" from="4281236989" to="4281231686" numLanes="1" speed="8.33" />
	<edge id="228894140_2375515846_2375515853_2375515846" from="2375515846" to="2375515848" numLanes="1" speed="13.89" />
	<edge id="228894140_2375515846_2375515853_2375515848" from="2375515848" to="2375515849" numLanes="1" speed="13.89" />
	<edge id="228894140_2375515846_2375515853_2375515849" from="2375515849" to="2375515852" numLanes="1" speed="13.89" />
	<edge id="228894140_2375515846_2375515853_2375515852" from="2375515852" to="2375515853" numLanes="1" speed="13.89" />
	<edge id="3339417_1278867226_16465404_1278867226" from="1278867226" to="16465400" numLanes="1" speed="8.33" />
	<edge id="3339417_1278867226_16465404_16465400" from="16465400" to="249336793" numLanes="1" speed="8.33" />
	<edge id="3339417_1278867226_16465404_249336793" from="249336793" to="4294821290" numLanes="1" speed="8.33" />
	<edge id="3339417_1278867226_16465404_4294821290" from="4294821290" to="16465402" numLanes="1" speed="8.33" />
	<edge id="3339417_1278867226_16465404_16465402" from="16465402" to="16465404" numLanes="1" speed="8.33" />
	<edge id="72272655_2964381839_858744682_2964381839" from="2964381839" to="6198972531" numLanes="1" speed="13.89" />
	<edge id="72272655_2964381839_858744682_6198972531" from="6198972531" to="6198972532" numLanes="1" speed="13.89" />
	<edge id="72272655_2964381839_858744682_6198972532" from="6198972532" to="6198972533" numLanes="1" speed="13.89" />
	<edge id="72272655_2964381839_858744682_6198972533" from="6198972533" to="6198972534" numLanes="1" speed="13.89" />
	<edge id="72272655_2964381839_858744682_6198972534" from="6198972534" to="6198972535" numLanes="1" speed="13.89" />
	<edge id="72272655_2964381839_858744682_6198972535" from="6198972535" to="6198972536" numLanes="1" speed="13.89" />
	<edge id="72272655_2964381839_858744682_6198972536" from="6198972536" to="6198972537" numLanes="1" speed="13.89" />
	<edge id="72272655_2964381839_858744682_6198972537" from="6198972537" to="16465219" numLanes="1" speed="13.89" />
	<edge id="72272655_2964381839_858744682_16465219" from="16465219" to="6198972538" numLanes="1" speed="13.89" />
	<edge id="72272655_2964381839_858744682_6198972538" from="6198972538" to="2719789561" numLanes="1" speed="13.89" />
	<edge id="72272655_2964381839_858744682_2719789561" from="2719789561" to="12639598" numLanes="1" speed="13.89" />
	<edge id="72272655_2964381839_858744682_12639598" from="12639598" to="5565974816" numLanes="1" speed="13.89" />
	<edge id="72272655_2964381839_858744682_5565974816" from="5565974816" to="6198972539" numLanes="1" speed="13.89" />
	<edge id="72272655_2964381839_858744682_6198972539" from="6198972539" to="12639601" numLanes="1" speed="13.89" />
	<edge id="72272655_2964381839_858744682_12639601" from="12639601" to="6198972540" numLanes="1" speed="13.89" />
	<edge id="72272655_2964381839_858744682_6198972540" from="6198972540" to="6198972541" numLanes="1" speed="13.89" />
	<edge id="72272655_2964381839_858744682_6198972541" from="6198972541" to="385288754" numLanes="1" speed="13.89" />
	<edge id="72272655_2964381839_858744682_385288754" from="385288754" to="2719789549" numLanes="1" speed="13.89" />
	<edge id="72272655_2964381839_858744682_2719789549" from="2719789549" to="12639602" numLanes="1" speed="13.89" />
	<edge id="72272655_2964381839_858744682_12639602" from="12639602" to="12867394" numLanes="1" speed="13.89" />
	<edge id="72272655_2964381839_858744682_12867394" from="12867394" to="12639603" numLanes="1" speed="13.89" />
	<edge id="72272655_2964381839_858744682_12639603" from="12639603" to="14957890" numLanes="1" speed="13.89" />
	<edge id="72272655_2964381839_858744682_14957890" from="14957890" to="5565998651" numLanes="1" speed="13.89" />
	<edge id="72272655_2964381839_858744682_5565998651" from="5565998651" to="2719789527" numLanes="1" speed="13.89" />
	<edge id="72272655_2964381839_858744682_2719789527" from="2719789527" to="302047249" numLanes="1" speed="13.89" />
	<edge id="72272655_2964381839_858744682_302047249" from="302047249" to="1387783344" numLanes="1" speed="13.89" />
	<edge id="72272655_2964381839_858744682_1387783344" from="1387783344" to="12639604" numLanes="1" speed="13.89" />
	<edge id="72272655_2964381839_858744682_12639604" from="12639604" to="858744707" numLanes="1" speed="13.89" />
	<edge id="72272655_2964381839_858744682_858744707" from="858744707" to="2752855727" numLanes="1" speed="13.89" />
	<edge id="72272655_2964381839_858744682_2752855727" from="2752855727" to="858744687" numLanes="1" speed="13.89" />
	<edge id="72272655_2964381839_858744682_858744687" from="858744687" to="2752855726" numLanes="1" speed="13.89" />
	<edge id="72272655_2964381839_858744682_2752855726" from="2752855726" to="12639605" numLanes="1" speed="13.89" />
	<edge id="72272655_2964381839_858744682_12639605" from="12639605" to="858744636" numLanes="1" speed="13.89" />
	<edge id="72272655_2964381839_858744682_858744636" from="858744636" to="12639606" numLanes="1" speed="13.89" />
	<edge id="72272655_2964381839_858744682_12639606" from="12639606" to="1387783324" numLanes="1" speed="13.89" />
	<edge id="72272655_2964381839_858744682_1387783324" from="1387783324" to="16465121" numLanes="1" speed="13.89" />
	<edge id="72272655_2964381839_858744682_16465121" from="16465121" to="1385170764" numLanes="1" speed="13.89" />
	<edge id="72272655_2964381839_858744682_1385170764" from="1385170764" to="12639607" numLanes="1" speed="13.89" />
	<edge id="72272655_2964381839_858744682_12639607" from="12639607" to="858744699" numLanes="1" speed="13.89" />
	<edge id="72272655_2964381839_858744682_858744699" from="858744699" to="2752855771" numLanes="1" speed="13.89" />
	<edge id="72272655_2964381839_858744682_2752855771" from="2752855771" to="858744682" numLanes="1" speed="13.89" />
	<edge id="356473665_3619139707_3556717789_3619139707" from="3619139707" to="4281232609" numLanes="1" speed="8.33" />
	<edge id="356473665_3619139707_3556717789_4281232609" from="4281232609" to="4281232608" numLanes="1" speed="8.33" />
	<edge id="356473665_3619139707_3556717789_4281232608" from="4281232608" to="4281232604" numLanes="1" speed="8.33" />
	<edge id="356473665_3619139707_3556717789_4281232604" from="4281232604" to="6565261112" numLanes="1" speed="8.33" />
	<edge id="356473665_3619139707_3556717789_6565261112" from="6565261112" to="3556717789" numLanes="1" speed="8.33" />
	<edge id="312790967_11853224_16054206_11853224" from="11853224" to="3186791833" numLanes="1" speed="13.89" />
	<edge id="312790967_11853224_16054206_3186791833" from="3186791833" to="3186791832" numLanes="1" speed="13.89" />
	<edge id="312790967_11853224_16054206_3186791832" from="3186791832" to="249335543" numLanes="1" speed="13.89" />
	<edge id="312790967_11853224_16054206_249335543" from="249335543" to="2719715559" numLanes="1" speed="13.89" />
	<edge id="312790967_11853224_16054206_2719715559" from="2719715559" to="11853225" numLanes="1" speed="13.89" />
	<edge id="312790967_11853224_16054206_11853225" from="11853225" to="3920776531" numLanes="1" speed="13.89" />
	<edge id="312790967_11853224_16054206_3920776531" from="3920776531" to="16054227" numLanes="1" speed="13.89" />
	<edge id="312790967_11853224_16054206_16054227" from="16054227" to="249335523" numLanes="1" speed="13.89" />
	<edge id="312790967_11853224_16054206_249335523" from="249335523" to="3186791823" numLanes="1" speed="13.89" />
	<edge id="312790967_11853224_16054206_3186791823" from="3186791823" to="3186791822" numLanes="1" speed="13.89" />
	<edge id="312790967_11853224_16054206_3186791822" from="3186791822" to="16054206" numLanes="1" speed="13.89" />
	<edge id="724630031_6796012343_528733591_6796012343" from="6796012343" to="528733591" numLanes="1" speed="13.89" />
	<edge id="27089108_12867335_528733577_12867335" from="12867335" to="2686926352" numLanes="1" speed="13.89" />
	<edge id="27089108_12867335_528733577_2686926352" from="2686926352" to="2686926360" numLanes="1" speed="13.89" />
	<edge id="27089108_12867335_528733577_2686926360" from="2686926360" to="528733577" numLanes="1" speed="13.89" />
	<edge id="8584365_300427460_60935973_300427460" from="300427460" to="60935973" numLanes="1" speed="13.89" />
	<edge id="263086489_2687083951_2687083926_2687083951" from="2687083951" to="2687083945" numLanes="1" speed="8.33" />
	<edge id="263086489_2687083951_2687083926_2687083945" from="2687083945" to="2687083942" numLanes="1" speed="8.33" />
	<edge id="263086489_2687083951_2687083926_2687083942" from="2687083942" to="2687083938" numLanes="1" speed="8.33" />
	<edge id="263086489_2687083951_2687083926_2687083938" from="2687083938" to="2687083930" numLanes="1" speed="8.33" />
	<edge id="263086489_2687083951_2687083926_2687083930" from="2687083930" to="2687083926" numLanes="1" speed="8.33" />
	<edge id="430210087_4294821426_4294821536_4294821426" from="4294821426" to="4294821451" numLanes="1" speed="8.33" />
	<edge id="430210087_4294821426_4294821536_4294821451" from="4294821451" to="4294821459" numLanes="1" speed="8.33" />
	<edge id="430210087_4294821426_4294821536_4294821459" from="4294821459" to="4294821466" numLanes="1" speed="8.33" />
	<edge id="430210087_4294821426_4294821536_4294821466" from="4294821466" to="4294821474" numLanes="1" speed="8.33" />
	<edge id="430210087_4294821426_4294821536_4294821474" from="4294821474" to="4294821484" numLanes="1" speed="8.33" />
	<edge id="430210087_4294821426_4294821536_4294821484" from="4294821484" to="4294821495" numLanes="1" speed="8.33" />
	<edge id="430210087_4294821426_4294821536_4294821495" from="4294821495" to="4294821536" numLanes="1" speed="8.33" />
	<edge id="27089074_297208480_297208479_297208480" from="297208480" to="2375495156" numLanes="1" speed="13.89" />
	<edge id="27089074_297208480_297208479_2375495156" from="2375495156" to="297208479" numLanes="1" speed="13.89" />
	<edge id="42351162_2685293223_2375515878_2685293223" from="2685293223" to="528733703" numLanes="1" speed="13.89" />
	<edge id="42351162_2685293223_2375515878_528733703" from="528733703" to="528733717" numLanes="1" speed="13.89" />
	<edge id="42351162_2685293223_2375515878_528733717" from="528733717" to="2375515887" numLanes="1" speed="13.89" />
	<edge id="42351162_2685293223_2375515878_2375515887" from="2375515887" to="2375515882" numLanes="1" speed="13.89" />
	<edge id="42351162_2685293223_2375515878_2375515882" from="2375515882" to="2375515878" numLanes="1" speed="13.89" />
	<edge id="60087562_12524855_746673031_12524855" from="12524855" to="746673022" numLanes="1" speed="16.67" />
	<edge id="60087562_12524855_746673031_746673022" from="746673022" to="746673037" numLanes="1" speed="16.67" />
	<edge id="60087562_12524855_746673031_746673037" from="746673037" to="746673031" numLanes="1" speed="16.67" />
	<edge id="42351178_528733651_528733596_528733651" from="528733651" to="528733596" numLanes="1" speed="13.89" />
	<edge id="106974037_1230016413_1230016490_1230016413" from="1230016413" to="1230016464" numLanes="1" speed="13.89" />
	<edge id="106974037_1230016413_1230016490_1230016464" from="1230016464" to="1230016434" numLanes="1" speed="13.89" />
	<edge id="106974037_1230016413_1230016490_1230016434" from="1230016434" to="1230016490" numLanes="1" speed="13.89" />
	<edge id="263086486_2687083926_2687083976_2687083926" from="2687083926" to="2687083937" numLanes="1" speed="8.33" />
	<edge id="263086486_2687083926_2687083976_2687083937" from="2687083937" to="3725499252" numLanes="1" speed="8.33" />
	<edge id="263086486_2687083926_2687083976_3725499252" from="3725499252" to="3725499254" numLanes="1" speed="8.33" />
	<edge id="263086486_2687083926_2687083976_3725499254" from="3725499254" to="2687083970" numLanes="1" speed="8.33" />
	<edge id="263086486_2687083926_2687083976_2687083970" from="2687083970" to="2687083973" numLanes="1" speed="8.33" />
	<edge id="263086486_2687083926_2687083976_2687083973" from="2687083973" to="2687083976" numLanes="1" speed="8.33" />
	<edge id="3701391_16711758_12867315_16711758" from="16711758" to="2369090981" numLanes="1" speed="13.89" />
	<edge id="3701391_16711758_12867315_2369090981" from="2369090981" to="2369090986" numLanes="1" speed="13.89" />
	<edge id="3701391_16711758_12867315_2369090986" from="2369090986" to="2369090983" numLanes="1" speed="13.89" />
	<edge id="3701391_16711758_12867315_2369090983" from="2369090983" to="12867315" numLanes="1" speed="13.89" />
	<edge id="3792107_798843302_12867335_798843302" from="798843302" to="2686926362" numLanes="1" speed="13.89" />
	<edge id="3792107_798843302_12867335_2686926362" from="2686926362" to="2686934127" numLanes="1" speed="13.89" />
	<edge id="3792107_798843302_12867335_2686934127" from="2686934127" to="2686926350" numLanes="1" speed="13.89" />
	<edge id="3792107_798843302_12867335_2686926350" from="2686926350" to="12867335" numLanes="1" speed="13.89" />
	<edge id="42351190_528733635_528733627_528733635" from="528733635" to="528733627" numLanes="1" speed="13.89" />
	<edge id="33530355_2375515878_12283594_2375515878" from="2375515878" to="12283592" numLanes="1" speed="13.89" />
	<edge id="33530355_2375515878_12283594_12283592" from="12283592" to="3797465254" numLanes="1" speed="13.89" />
	<edge id="33530355_2375515878_12283594_3797465254" from="3797465254" to="2375515883" numLanes="1" speed="13.89" />
	<edge id="33530355_2375515878_12283594_2375515883" from="2375515883" to="2375515884" numLanes="1" speed="13.89" />
	<edge id="33530355_2375515878_12283594_2375515884" from="2375515884" to="2375515886" numLanes="1" speed="13.89" />
	<edge id="33530355_2375515878_12283594_2375515886" from="2375515886" to="12283594" numLanes="1" speed="13.89" />
	<edge id="23011201_248089639_248089638_248089639" from="248089639" to="248089638" numLanes="3" speed="13.89" />
	<edge id="3785452_18896160_18896149_18896160" from="18896160" to="2375495003" numLanes="1" speed="13.89" />
	<edge id="3785452_18896160_18896149_2375495003" from="2375495003" to="3790819442" numLanes="1" speed="13.89" />
	<edge id="3785452_18896160_18896149_3790819442" from="3790819442" to="2375495006" numLanes="1" speed="13.89" />
	<edge id="3785452_18896160_18896149_2375495006" from="2375495006" to="18896151" numLanes="1" speed="13.89" />
	<edge id="3785452_18896160_18896149_18896151" from="18896151" to="2375495017" numLanes="1" speed="13.89" />
	<edge id="3785452_18896160_18896149_2375495017" from="2375495017" to="2375495021" numLanes="1" speed="13.89" />
	<edge id="3785452_18896160_18896149_2375495021" from="2375495021" to="18896149" numLanes="1" speed="13.89" />
	<edge id="7990004_297208480_333097185_297208480" from="297208480" to="333097185" numLanes="1" speed="13.89" />
	<edge id="106974211_1230024626_1230024566_1230024626" from="1230024626" to="1230024602" numLanes="1" speed="13.89" />
	<edge id="106974211_1230024626_1230024566_1230024602" from="1230024602" to="2375494913" numLanes="1" speed="13.89" />
	<edge id="106974211_1230024626_1230024566_2375494913" from="2375494913" to="1230024566" numLanes="1" speed="13.89" />
	<edge id="106974211_1230024639_1230024554_1230024639" from="1230024639" to="1230024645" numLanes="1" speed="13.89" />
	<edge id="106974211_1230024639_1230024554_1230024645" from="1230024645" to="2375494989" numLanes="1" speed="13.89" />
	<edge id="106974211_1230024639_1230024554_2375494989" from="2375494989" to="1230024554" numLanes="1" speed="13.89" />
	<edge id="548954784_5302990843_12282052_5302990843" from="5302990843" to="12282052" numLanes="4" speed="27.78" />
	<edge id="7990004_12867332_12867330_12867332" from="12867332" to="12867331" numLanes="1" speed="13.89" />
	<edge id="7990004_12867332_12867330_12867331" from="12867331" to="333099181" numLanes="1" speed="13.89" />
	<edge id="7990004_12867332_12867330_333099181" from="333099181" to="12867330" numLanes="1" speed="13.89" />
	<edge id="3793265_18896206_3717739196_18896206" from="18896206" to="2686899250" numLanes="1" speed="13.89" />
	<edge id="3793265_18896206_3717739196_2686899250" from="2686899250" to="2686868838" numLanes="1" speed="13.89" />
	<edge id="3793265_18896206_3717739196_2686868838" from="2686868838" to="3717739195" numLanes="1" speed="13.89" />
	<edge id="3793265_18896206_3717739196_3717739195" from="3717739195" to="3717739196" numLanes="1" speed="13.89" />
	<edge id="4368134_244061859_4281236991_244061859" from="244061859" to="945906393" numLanes="1" speed="13.89" />
	<edge id="4368134_244061859_4281236991_945906393" from="945906393" to="244061856" numLanes="1" speed="13.89" />
	<edge id="4368134_244061859_4281236991_244061856" from="244061856" to="2619194813" numLanes="1" speed="13.89" />