<?xml version="1.0" ?>
<routes>
  <vType id="veh_passenger" vClass="passenger"/>
    <trip id="veh1" type="veh_passenger" depart="00.00" departLane="best" from="61047423_446897184_5302990843_385709" to="61047423_446897184_5302990843_827307965"/>
    <trip id="veh2" type="veh_passenger" depart="00.00" departLane="best" from="61047423_446897184_5302990843_385709" to="61047423_446897184_5302990843_827307965"/>
    <trip id="veh3" type="veh_passenger" depart="00.00" departLane="best" from="61047423_446897184_5302990843_385709" to="61047423_446897184_5302990843_827307965"/>
    <trip id="veh4" type="veh_passenger" depart="00.00" departLane="best" from="61047423_446897184_5302990843_385709" to="61047423_446897184_5302990843_827307965"/>
    <trip id="veh5" type="veh_passenger" depart="00.00" departLane="best" from="61047423_446897184_5302990843_385709" to="61047423_446897184_5302990843_827307965"/>


    <trip id="veh6" type="veh_passenger" depart="00.00" departLane="best" from="260858269_638781364_3522022725_11686377" to="345558329_3522022725_12114972_11686386"/>
    <trip id="veh7" type="veh_passenger" depart="00.00" departLane="best" from="260858269_638781364_3522022725_11686377" to="345558329_3522022725_12114972_11686386"/>
    <trip id="veh8" type="veh_passenger" depart="00.00" departLane="best" from="260858269_638781364_3522022725_11686377" to="345558329_3522022725_12114972_11686386"/>
    <trip id="veh9" type="veh_passenger" depart="00.00" departLane="best" from="260858269_638781364_3522022725_11686377" to="345558329_3522022725_12114972_11686386"/>
    <trip id="veh10" type="veh_passenger" depart="00.00" departLane="best" from="260858269_638781364_3522022725_11686377" to="345558329_3522022725_12114972_11686386"/>

 <trip id="veh11" type="veh_passenger" depart="15.00" departLane="best" from="61047423_446897184_5302990843_385709" to="61047423_446897184_5302990843_827307965"/>
    <trip id="veh12" type="veh_passenger" depart="15.00" departLane="best" from="61047423_446897184_5302990843_385709" to="61047423_446897184_5302990843_827307965"/>
    <trip id="veh13" type="veh_passenger" depart="15.00" departLane="best" from="61047423_446897184_5302990843_385709" to="61047423_446897184_5302990843_827307965"/>
    <trip id="veh14" type="veh_passenger" depart="15.00" departLane="best" from="61047423_446897184_5302990843_385709" to="61047423_446897184_5302990843_827307965"/>
    <trip id="veh15" type="veh_passenger" depart="15.00" departLane="best" from="61047423_446897184_5302990843_385709" to="61047423_446897184_5302990843_827307965"/>

    <trip id="veh16" type="veh_passenger" depart="15.00" departLane="best" from="260858269_638781364_3522022725_11686377" to="345558329_3522022725_12114972_11686386"/>
    <trip id="veh17" type="veh_passenger" depart="15.00" departLane="best" from="260858269_638781364_3522022725_11686377" to="345558329_3522022725_12114972_11686386"/>
    <trip id="veh18" type="veh_passenger" depart="15.00" departLane="best" from="260858269_638781364_3522022725_11686377" to="345558329_3522022725_12114972_11686386"/>
    <trip id="veh19" type="veh_passenger" depart="15.00" departLane="best" from="260858269_638781364_3522022725_11686377" to="345558329_3522022725_12114972_11686386"/>
    <trip id="veh20" type="veh_passenger" depart="15.00" departLane="best" from="260858269_638781364_3522022725_11686377" to="345558329_3522022725_12114972_11686386"/>

    <trip id="veh21" type="veh_passenger" depart="30.00" departLane="best" from="61047423_446897184_5302990843_385709" to="61047423_446897184_5302990843_827307965"/>
    <trip id="veh22" type="veh_passenger" depart="30.00" departLane="best" from="61047423_446897184_5302990843_385709" to="61047423_446897184_5302990843_827307965"/>
    <trip id="veh23" type="veh_passenger" depart="30.00" departLane="best" from="61047423_446897184_5302990843_385709" to="61047423_446897184_5302990843_827307965"/>
    <trip id="veh24" type="veh_passenger" depart="30.00" departLane="best" from="61047423_446897184_5302990843_385709" to="61047423_446897184_5302990843_827307965"/>
    <trip id="veh25" type="veh_passenger" depart="30.00" departLane="best" from="61047423_446897184_5302990843_385709" to="61047423_446897184_5302990843_827307965"/>

    <trip id="veh26" type="veh_passenger" depart="30.00" departLane="best" from="260858269_638781364_3522022725_11686377" to="6345558329_3522022725_12114972_11686386"/>
    <trip id="veh27" type="veh_passenger" depart="30.00" departLane="best" from="260858269_638781364_3522022725_11686377" to="345558329_3522022725_12114972_11686386"/>
    <trip id="veh28" type="veh_passenger" depart="30.00" departLane="best" from="260858269_638781364_3522022725_11686377" to="345558329_3522022725_12114972_11686386"/>
    <trip id="veh29" type="veh_passenger" depart="30.00" departLane="best" from="260858269_638781364_3522022725_11686377" to="6345558329_3522022725_12114972_11686386"/>
    <trip id="veh30" type="veh_passenger" depart="30.00" departLane="best" from="260858269_638781364_3522022725_11686377" to="345558329_3522022725_12114972_11686386"/>
</routes>
