<nodes>
	<node id="5914738" x="678798.1664" y="5920650.9874" z="0.0000" type="priority" />
	<node id="638781369" x="678360.9228" y="5920349.5827" z="0.0000" type="priority" />
	<node id="6818346891" x="677312.0782" y="5919905.0750" z="0.0000" type="priority" />
	<node id="638781368" x="678426.6470" y="5920390.8466" z="0.0000" type="priority" />
	<node id="6818346892" x="677318.2528" y="5919916.5320" z="0.0000" type="priority" />
	<node id="638781378" x="678777.1448" y="5920455.7166" z="0.0000" type="priority" />
	<node id="4022407957" x="679209.0378" y="5919799.7450" z="0.0000" type="priority" />
	<node id="638781377" x="678786.5856" y="5920448.9337" z="0.0000" type="priority" />
	<node id="638781376" x="678799.6565" y="5920435.3715" z="0.0000" type="priority" />
	<node id="638781374" x="678538.2969" y="5920433.6403" z="0.0000" type="priority" />
	<node id="638781373" x="678621.1229" y="5920431.4702" z="0.0000" type="priority" />
	<node id="638781372" x="678651.7719" y="5920429.1948" z="0.0000" type="priority" />
	<node id="638781371" x="678674.0824" y="5920428.6546" z="0.0000" type="priority" />
	<node id="648460402" x="675672.9038" y="5917955.8465" z="0.0000" type="priority" />
	<node id="2495602532" x="678994.6209" y="5919967.3805" z="0.0000" type="priority" />
	<node id="638781370" x="678709.9914" y="5920433.2156" z="0.0000" type="priority" />
	<node id="877556679" x="679004.6948" y="5919877.7386" z="0.0000" type="priority" />
	<node id="2369090979" x="678687.1773" y="5917893.7607" z="0.0000" type="priority" />
	<node id="2369090977" x="678594.9940" y="5917841.7098" z="0.0000" type="priority" />
	<node id="638781367" x="678459.2926" y="5920407.8456" z="0.0000" type="priority" />
	<node id="638781366" x="678491.7205" y="5920421.9632" z="0.0000" type="priority" />
	<node id="648460415" x="675738.2974" y="5917856.1443" z="0.0000" type="priority" />
	<node id="638781365" x="678518.9471" y="5920429.9714" z="0.0000" type="priority" />
	<node id="638781364" x="678222.7187" y="5920271.3924" z="0.0000" type="priority" />
	<node id="3717537342" x="679011.1315" y="5919614.3078" z="0.0000" type="priority" />
	<node id="281626293" x="675006.7499" y="5918434.7939" z="0.0000" type="priority" />
	<node id="869465100" x="675593.3771" y="5920447.8909" z="0.0000" type="priority" />
	<node id="869465102" x="675613.8005" y="5920409.4905" z="0.0000" type="priority" />
	<node id="869465104" x="675525.2614" y="5920399.4961" z="0.0000" type="priority" />
	<node id="4022407977" x="679100.8575" y="5919911.7077" z="0.0000" type="priority" />
	<node id="4022407970" x="679091.8852" y="5919929.3109" z="0.0000" type="priority" />
	<node id="4022423189" x="679062.0277" y="5919986.6760" z="0.0000" type="priority" />
	<node id="638781379" x="678767.4706" y="5920458.1027" z="0.0000" type="priority" />
	<node id="2495602502" x="678772.1402" y="5919700.8489" z="0.0000" type="priority" />
	<node id="982684986" x="676084.9117" y="5917693.3793" z="0.0000" type="priority" />
	<node id="869465112" x="675527.5156" y="5920390.2024" z="0.0000" type="priority" />
	<node id="2495602504" x="678710.7466" y="5919706.9767" z="0.0000" type="priority" />
	<node id="869465114" x="675433.8032" y="5920552.1812" z="0.0000" type="priority" />
	<node id="638781383" x="678820.7201" y="5920405.2490" z="0.0000" type="priority" />
	<node id="638781382" x="678726.3356" y="5920439.4561" z="0.0000" type="priority" />
	<node id="638781381" x="678743.9987" y="5920449.1988" z="0.0000" type="priority" />
	<node id="638781380" x="678757.6078" y="5920456.8398" z="0.0000" type="priority" />
	<node id="4294821394" x="675210.1411" y="5917840.1751" z="0.0000" type="priority" />
	<node id="648460454" x="675759.9329" y="5917904.8448" z="0.0000" type="priority" />
	<node id="818902719" x="675581.0705" y="5918017.9644" z="0.0000" type="priority" />
	<node id="818902718" x="675557.2473" y="5918007.6612" z="0.0000" type="priority" />
	<node id="818902717" x="675588.6009" y="5918031.2954" z="0.0000" type="priority" />
	<node id="818902716" x="675571.8777" y="5918005.6523" z="0.0000" type="priority" />
	<node id="938747000" x="674865.7998" y="5918444.1628" z="0.0000" type="priority" />
	<node id="2568341488" x="675171.2171" y="5918290.9200" z="0.0000" type="priority" />
	<node id="385288754" x="674711.4279" y="5917602.6057" z="0.0000" type="priority" />
	<node id="2568341486" x="674887.6203" y="5918278.1292" z="0.0000" type="priority" />
	<node id="648460458" x="675760.6070" y="5917893.4769" z="0.0000" type="priority" />
	<node id="871794700" x="675518.4516" y="5917987.0150" z="0.0000" type="priority" />
	<node id="4022407982" x="679120.9730" y="5919872.2510" z="0.0000" type="priority" />
	<node id="2568341493" x="674941.1568" y="5918282.3527" z="0.0000" type="priority" />
	<node id="4022444931" x="679139.0181" y="5920486.2055" z="0.0000" type="priority" />
	<node id="2568341495" x="674925.0582" y="5918284.1312" z="0.0000" type="priority" />
	<node id="4022444912" x="679105.2679" y="5920471.7326" z="0.0000" type="priority" />
	<node id="4022444917" x="679084.5325" y="5920469.6908" z="0.0000" type="priority" />
	<node id="2568341468" x="674950.7545" y="5918247.6040" z="0.0000" type="priority" />
	<node id="251333079" x="675474.1639" y="5918111.9678" z="0.0000" type="priority" />
	<node id="2710658789" x="675383.1855" y="5918175.7914" z="0.0000" type="priority" />
	<node id="248123861" x="679061.6419" y="5920774.0202" z="0.0000" type="priority" />
	<node id="248123860" x="679133.3218" y="5920814.6509" z="0.0000" type="priority" />
	<node id="2572910091" x="678241.3570" y="5919185.2550" z="0.0000" type="priority" />
	<node id="2568341471" x="674945.8524" y="5918263.7161" z="0.0000" type="priority" />
	<node id="1615384992" x="678886.6899" y="5919511.6934" z="0.0000" type="priority" />
	<node id="2572910099" x="678154.2520" y="5919243.5369" z="0.0000" type="priority" />
	<node id="18896175" x="679195.7145" y="5918816.3355" z="0.0000" type="priority" />
	<node id="528721686" x="678941.5664" y="5918177.0665" z="0.0000" type="priority" />
	<node id="528721687" x="678935.7174" y="5918164.7732" z="0.0000" type="priority" />
	<node id="528721688" x="678923.3902" y="5918150.6875" z="0.0000" type="priority" />
	<node id="11675930" x="674320.3159" y="5919123.4964" z="0.0000" type="priority" />
	<node id="528733672" x="678746.5090" y="5919346.8117" z="0.0000" type="priority" />
	<node id="528733671" x="678735.4636" y="5919124.9660" z="0.0000" type="priority" />
	<node id="528733678" x="678851.9666" y="5918888.3381" z="0.0000" type="priority" />
	<node id="868670302" x="675626.9207" y="5918352.5607" z="0.0000" type="priority" />
	<node id="1615386766" x="678710.5788" y="5919387.4670" z="0.0000" type="priority" />
	<node id="18896180" x="679291.8733" y="5918522.2597" z="0.0000" type="priority" />
	<node id="528733676" x="678840.3873" y="5918958.8231" z="0.0000" type="priority" />
	<node id="528733675" x="678946.5502" y="5918931.5540" z="0.0000" type="priority" />
	<node id="18896183" x="678998.3694" y="5918213.3670" z="0.0000" type="priority" />
	<node id="528733679" x="678870.1699" y="5918951.7047" z="0.0000" type="priority" />
	<node id="18896187" x="679340.2553" y="5918277.5769" z="0.0000" type="priority" />
	<node id="12524840" x="678504.7712" y="5921289.1723" z="0.0000" type="priority" />
	<node id="18896189" x="679272.1820" y="5918557.3774" z="0.0000" type="priority" />
	<node id="1230024595" x="678644.5189" y="5918296.7666" z="0.0000" type="priority" />
	<node id="1230024594" x="678658.5013" y="5918084.0726" z="0.0000" type="priority" />
	<node id="248123827" x="679066.0111" y="5920817.0971" z="0.0000" type="priority" />
	<node id="1230024591" x="678771.0283" y="5918244.4654" z="0.0000" type="priority" />
	<node id="1230024593" x="678758.2882" y="5918040.7434" z="0.0000" type="priority" />
	<node id="1230024592" x="678485.4476" y="5918138.7353" z="0.0000" type="priority" />
	<node id="528733681" x="678779.3791" y="5918911.1948" z="0.0000" type="priority" />
	<node id="11675920" x="674832.9005" y="5919086.3249" z="0.0000" type="priority" />
	<node id="11675921" x="674801.4446" y="5919084.1854" z="0.0000" type="priority" />
	<node id="528733685" x="679022.8533" y="5918838.3193" z="0.0000" type="priority" />
	<node id="1230024588" x="678582.2091" y="5918213.9103" z="0.0000" type="priority" />
	<node id="1230024587" x="678643.3462" y="5918284.9394" z="0.0000" type="priority" />
	<node id="11675924" x="674630.2473" y="5919060.9400" z="0.0000" type="priority" />
	<node id="528733682" x="678783.9048" y="5918999.9060" z="0.0000" type="priority" />
	<node id="1230024589" x="678738.6118" y="5918183.3484" z="0.0000" type="priority" />
	<node id="11675925" x="674470.2954" y="5919048.4826" z="0.0000" type="priority" />
	<node id="12524834" x="678335.2666" y="5921698.8980" z="0.0000" type="priority" />
	<node id="18896190" x="678767.1615" y="5919198.9422" z="0.0000" type="priority" />
	<node id="11675926" x="674441.7196" y="5919055.2717" z="0.0000" type="priority" />
	<node id="528733688" x="679013.5205" y="5918924.7148" z="0.0000" type="priority" />
	<node id="12524832" x="678138.3850" y="5922060.0880" z="0.0000" type="priority" />
	<node id="528733687" x="679043.1310" y="5918926.7568" z="0.0000" type="priority" />
	<node id="12524831" x="678085.8693" y="5922125.4157" z="0.0000" type="priority" />
	<node id="11675929" x="674332.3861" y="5919118.2159" z="0.0000" type="priority" />
	<node id="18896195" x="679019.3651" y="5919087.7280" z="0.0000" type="priority" />
	<node id="18896192" x="678769.0250" y="5919165.5786" z="0.0000" type="priority" />
	<node id="18896156" x="679257.8903" y="5918427.9350" z="0.0000" type="priority" />
	<node id="18896157" x="679269.6465" y="5918269.2505" z="0.0000" type="priority" />
	<node id="248123819" x="679075.0973" y="5920798.7298" z="0.0000" type="priority" />
	<node id="615215417" x="674821.0098" y="5919413.9388" z="0.0000" type="priority" />
	<node id="615215418" x="674786.9764" y="5919421.8275" z="0.0000" type="priority" />
	<node id="242361127" x="674878.1967" y="5918037.9433" z="0.0000" type="priority" />
	<node id="11675911" x="674302.4740" y="5919125.1571" z="0.0000" type="priority" />
	<node id="528733651" x="678439.6820" y="5918930.2774" z="0.0000" type="priority" />
	<node id="528733656" x="678428.4565" y="5919057.8875" z="0.0000" type="priority" />
	<node id="382467935" x="679013.9714" y="5919428.8578" z="0.0000" type="priority" />
	<node id="528733655" x="678403.3888" y="5919057.2230" z="0.0000" type="priority" />
	<node id="382467932" x="679008.8499" y="5919432.6181" z="0.0000" type="priority" />
	<node id="528733653" x="678391.1754" y="5919055.8949" z="0.0000" type="priority" />
	<node id="242361124" x="674905.4427" y="5917960.8465" z="0.0000" type="priority" />
	<node id="528733658" x="678498.1004" y="5919038.1224" z="0.0000" type="priority" />
	<node id="18896160" x="679200.0432" y="5918259.8606" z="0.0000" type="priority" />
	<node id="292068057" x="678838.3686" y="5920419.4354" z="0.0000" type="priority" />
	<node id="528721692" x="678982.1851" y="5918133.4931" z="0.0000" type="priority" />
	<node id="18896166" x="679048.5420" y="5918272.0044" z="0.0000" type="priority" />
	<node id="528721693" x="678985.4502" y="5918102.7217" z="0.0000" type="priority" />
	<node id="18896163" x="679080.8426" y="5918254.2235" z="0.0000" type="priority" />
	<node id="528721694" x="678981.3406" y="5918097.2765" z="0.0000" type="priority" />
	<node id="528721690" x="678864.4202" y="5918139.3314" z="0.0000" type="priority" />
	<node id="615215420" x="674846.3966" y="5919402.6133" z="0.0000" type="priority" />
	<node id="528721691" x="678986.8085" y="5918146.8539" z="0.0000" type="priority" />
	<node id="2572909999" x="674902.9633" y="5917965.9670" z="0.0000" type="priority" />
	<node id="528721696" x="678968.5351" y="5918095.6909" z="0.0000" type="priority" />
	<node id="528721697" x="678877.7782" y="5918081.5765" z="0.0000" type="priority" />
	<node id="528721698" x="678320.7468" y="5918774.9634" z="0.0000" type="priority" />
	<node id="528733663" x="678556.5399" y="5919002.4447" z="0.0000" type="priority" />
	<node id="528733662" x="678546.4551" y="5919012.8347" z="0.0000" type="priority" />
	<node id="528733660" x="678526.1246" y="5919025.5119" z="0.0000" type="priority" />
	<node id="528733666" x="678696.5618" y="5919007.8518" z="0.0000" type="priority" />
	<node id="528733665" x="678678.0664" y="5918948.6515" z="0.0000" type="priority" />
	<node id="18896173" x="679314.2332" y="5918642.5518" z="0.0000" type="priority" />
	<node id="528733669" x="678643.3079" y="5919067.5567" z="0.0000" type="priority" />
	<node id="871842940" x="675579.2422" y="5918083.3807" z="0.0000" type="priority" />
	<node id="3728352116" x="678482.2311" y="5918653.3944" z="0.0000" type="priority" />
	<node id="746673021" x="678807.1915" y="5920702.3251" z="0.0000" type="priority" />
	<node id="746673022" x="678497.5986" y="5920509.4331" z="0.0000" type="priority" />
	<node id="248088156" x="675344.7115" y="5918155.2920" z="0.0000" type="priority" />
	<node id="746673029" x="678751.1545" y="5920776.4125" z="0.0000" type="priority" />
	<node id="3728352115" x="678509.0099" y="5918730.9030" z="0.0000" type="priority" />
	<node id="746673028" x="678815.1406" y="5920711.0781" z="0.0000" type="priority" />
	<node id="746673025" x="678786.6018" y="5920784.3203" z="0.0000" type="priority" />
	<node id="746673026" x="678652.7565" y="5920634.4236" z="0.0000" type="priority" />
	<node id="746673023" x="678792.1570" y="5920613.7406" z="0.0000" type="priority" />
	<node id="746673024" x="678820.6963" y="5920723.2936" z="0.0000" type="priority" />
	<node id="3797423966" x="679010.3495" y="5918842.0239" z="0.0000" type="priority" />
	<node id="3728352105" x="678484.1999" y="5918739.2689" z="0.0000" type="priority" />
	<node id="746673032" x="678735.9921" y="5920759.5136" z="0.0000" type="priority" />
	<node id="746673033" x="678823.2588" y="5920745.1636" z="0.0000" type="priority" />
	<node id="746673030" x="678755.9010" y="5920668.0148" z="0.0000" type="priority" />
	<node id="746673031" x="678652.3425" y="5920602.1435" z="0.0000" type="priority" />
	<node id="3728352104" x="678509.8430" y="5918814.3849" z="0.0000" type="priority" />
	<node id="248088164" x="675296.4724" y="5918103.8843" z="0.0000" type="priority" />
	<node id="746673038" x="678743.1269" y="5920769.9175" z="0.0000" type="priority" />
	<node id="248088163" x="675285.2856" y="5918105.5201" z="0.0000" type="priority" />
	<node id="311616261" x="676350.9896" y="5919815.7528" z="0.0000" type="priority" />
	<node id="746673036" x="678814.9293" y="5920766.4333" z="0.0000" type="priority" />
	<node id="746673037" x="678555.0638" y="5920544.5856" z="0.0000" type="priority" />
	<node id="746673034" x="678762.0351" y="5920782.2578" z="0.0000" type="priority" />
	<node id="746673035" x="678667.7392" y="5920610.5532" z="0.0000" type="priority" />
	<node id="18896198" x="679121.0647" y="5919176.1327" z="0.0000" type="priority" />
	<node id="528733691" x="679032.9282" y="5918974.9856" z="0.0000" type="priority" />
	<node id="528733690" x="678976.5973" y="5918926.0834" z="0.0000" type="priority" />
	<node id="528733695" x="679071.7502" y="5918974.1012" z="0.0000" type="priority" />
	<node id="528733699" x="679105.0216" y="5918959.7654" z="0.0000" type="priority" />
	<node id="877556616" x="678815.2259" y="5919534.1237" z="0.0000" type="priority" />
	<node id="528733697" x="679091.7244" y="5918967.7387" z="0.0000" type="priority" />
	<node id="12524849" x="678632.4382" y="5920862.0483" z="0.0000" type="priority" />
	<node id="12524848" x="678649.4900" y="5920778.1373" z="0.0000" type="priority" />
	<node id="12524847" x="678650.3231" y="5920729.5437" z="0.0000" type="priority" />
	<node id="877556619" x="678615.7480" y="5919978.7528" z="0.0000" type="priority" />
	<node id="6795966368" x="678746.1088" y="5918555.9015" z="0.0000" type="priority" />
	<node id="244418199" x="675697.9389" y="5917898.5395" z="0.0000" type="priority" />
	<node id="746673011" x="678742.6815" y="5920701.7744" z="0.0000" type="priority" />
	<node id="746673018" x="678807.1015" y="5920774.5800" z="0.0000" type="priority" />
	<node id="385804" x="677417.5770" y="5919755.9209" z="0.0000" type="priority" />
	<node id="12524855" x="678446.0688" y="5920475.1843" z="0.0000" type="priority" />
	<node id="746673019" x="678775.4814" y="5920784.8364" z="0.0000" type="priority" />
	<node id="385807" x="679367.5541" y="5920933.9236" z="0.0000" type="priority" />
	<node id="385806" x="678787.7332" y="5920671.7435" z="0.0000" type="priority" />
	<node id="746673017" x="678732.4053" y="5920719.9638" z="0.0000" type="priority" />
	<node id="746673014" x="678797.4639" y="5920780.5981" z="0.0000" type="priority" />
	<node id="746673015" x="678731.4090" y="5920746.3882" z="0.0000" type="priority" />
	<node id="746673013" x="678768.7846" y="5920676.6977" z="0.0000" type="priority" />
	<node id="3845944640" x="674734.4368" y="5919076.1590" z="0.0000" type="priority" />
	<node id="1230024641" x="678509.8155" y="5918141.8461" z="0.0000" type="priority" />
	<node id="1230024640" x="678652.5005" y="5918295.9424" z="0.0000" type="priority" />
	<node id="1230024635" x="678557.5352" y="5918026.9693" z="0.0000" type="priority" />
	<node id="385711" x="676847.3666" y="5919376.6571" z="0.0000" type="priority" />
	<node id="1230024638" x="678567.2357" y="5918207.4775" z="0.0000" type="priority" />
	<node id="385710" x="676467.9401" y="5919122.4122" z="0.0000" type="priority" />
	<node id="1230024637" x="678423.6873" y="5918226.1661" z="0.0000" type="priority" />
	<node id="3845944639" x="674503.4195" y="5919045.6364" z="0.0000" type="priority" />
	<node id="1230024639" x="678734.1658" y="5918234.7236" z="0.0000" type="priority" />
	<node id="2572910001" x="674620.3135" y="5917987.7294" z="0.0000" type="priority" />
	<node id="3797423923" x="678944.6813" y="5918861.4417" z="0.0000" type="priority" />
	<node id="385709" x="676285.0473" y="5918998.7517" z="0.0000" type="priority" />
	<node id="1230024625" x="678643.4839" y="5918265.5437" z="0.0000" type="priority" />
	<node id="385700" x="674840.9978" y="5918297.1360" z="0.0000" type="priority" />
	<node id="1230024627" x="678529.6534" y="5918365.4799" z="0.0000" type="priority" />
	<node id="1230024626" x="678738.9757" y="5918175.6329" z="0.0000" type="priority" />
	<node id="1230024621" x="678742.7698" y="5918176.5555" z="0.0000" type="priority" />
	<node id="5151492622" x="678246.5217" y="5919138.7067" z="0.0000" type="priority" />
	<node id="1230024623" x="678744.1088" y="5918298.3128" z="0.0000" type="priority" />
	<node id="5151492623" x="678071.0757" y="5919082.5227" z="0.0000" type="priority" />
	<node id="528733601" x="678085.8662" y="5919105.6418" z="0.0000" type="priority" />
	<node id="385708" x="675975.6720" y="5918786.0656" z="0.0000" type="priority" />
	<node id="868670299" x="675610.3986" y="5918297.7800" z="0.0000" type="priority" />
	<node id="746673043" x="678730.5946" y="5920733.0374" z="0.0000" type="priority" />
	<node id="746673041" x="678651.4221" y="5920620.2067" z="0.0000" type="priority" />
	<node id="746673042" x="678821.1966" y="5920754.8420" z="0.0000" type="priority" />
	<node id="746673040" x="678823.7044" y="5920733.3527" z="0.0000" type="priority" />
	<node id="3793626490" x="679049.0146" y="5918410.6803" z="0.0000" type="priority" />
	<node id="1230024643" x="678461.6264" y="5918205.5305" z="0.0000" type="priority" />
	<node id="170802842" x="674538.7012" y="5919047.6586" z="0.0000" type="priority" />
	<node id="1230024645" x="678725.3687" y="5918235.8066" z="0.0000" type="priority" />
	<node id="1230024644" x="678647.3047" y="5918323.4002" z="0.0000" type="priority" />
	<node id="2968112943" x="674309.3881" y="5919124.8655" z="0.0000" type="priority" />
	<node id="170802847" x="674864.6231" y="5919085.7459" z="0.0000" type="priority" />
	<node id="528733628" x="678261.4314" y="5919146.5842" z="0.0000" type="priority" />
	<node id="869465089" x="675561.8442" y="5920471.7919" z="0.0000" type="priority" />
	<node id="528733630" x="678242.5184" y="5919126.8957" z="0.0000" type="priority" />
	<node id="4705256284" x="675038.6740" y="5917765.8126" z="0.0000" type="priority" />
	<node id="4705256283" x="675024.6209" y="5917754.8703" z="0.0000" type="priority" />
	<node id="6397491710" x="674959.8634" y="5919116.6991" z="0.0000" type="priority" />
	<node id="4705256282" x="674974.9392" y="5917713.1242" z="0.0000" type="priority" />
	<node id="170802832" x="674382.1693" y="5919081.0458" z="0.0000" type="priority" />
	<node id="170802834" x="674411.1541" y="5919065.6628" z="0.0000" type="priority" />
	<node id="528733633" x="678254.3703" y="5919246.2409" z="0.0000" type="priority" />
	<node id="869465081" x="675534.2353" y="5920395.1175" z="0.0000" type="priority" />
	<node id="6397491714" x="674985.2802" y="5919107.8588" z="0.0000" type="priority" />
	<node id="869465084" x="675555.2371" y="5920470.3111" z="0.0000" type="priority" />
	<node id="170802838" x="674500.2613" y="5919045.7095" z="0.0000" type="priority" />
	<node id="6397491718" x="675007.8426" y="5919100.0604" z="0.0000" type="priority" />
	<node id="385759" x="674720.1953" y="5919691.0561" z="0.0000" type="priority" />
	<node id="869465086" x="675503.0474" y="5920495.8085" z="0.0000" type="priority" />
	<node id="528733635" x="678229.7347" y="5919361.1187" z="0.0000" type="priority" />
	<node id="646668280" x="675757.4499" y="5917922.4380" z="0.0000" type="priority" />
	<node id="18896146" x="679232.2481" y="5918475.5133" z="0.0000" type="priority" />
	<node id="869465090" x="675623.1837" y="5920413.6469" z="0.0000" type="priority" />
	<node id="18896149" x="679177.7676" y="5918421.9233" z="0.0000" type="priority" />
	<node id="869465091" x="675641.0190" y="5920400.7431" z="0.0000" type="priority" />
	<node id="869465092" x="675600.9817" y="5920413.6375" z="0.0000" type="priority" />
	<node id="869465093" x="675530.2078" y="5920412.2192" z="0.0000" type="priority" />
	<node id="385745" x="674522.5535" y="5919421.3212" z="0.0000" type="priority" />
	<node id="18896151" x="679192.7146" y="5918377.1928" z="0.0000" type="priority" />
	<node id="170802827" x="674360.7408" y="5919096.7846" z="0.0000" type="priority" />
	<node id="869465096" x="675541.6832" y="5920476.7028" z="0.0000" type="priority" />
	<node id="528733646" x="678292.5880" y="5919340.8618" z="0.0000" type="priority" />
	<node id="869465098" x="675517.3448" y="5920475.6235" z="0.0000" type="priority" />
	<node id="6397491709" x="675064.9645" y="5919080.6637" z="0.0000" type="priority" />
	<node id="5681374015" x="678822.1354" y="5919883.2904" z="0.0000" type="priority" />
	<node id="4705256261" x="674995.4826" y="5917772.8837" z="0.0000" type="priority" />
	<node id="12115820" x="679045.9210" y="5920017.2966" z="0.0000" type="priority" />
	<node id="12115821" x="679036.8709" y="5920001.5409" z="0.0000" type="priority" />
	<node id="12115824" x="679156.0934" y="5919794.0245" z="0.0000" type="priority" />
	<node id="12115822" x="679138.2433" y="5919798.8742" z="0.0000" type="priority" />
	<node id="528733618" x="678119.1833" y="5919264.7500" z="0.0000" type="priority" />
	<node id="255961829" x="675859.1816" y="5917591.2029" z="0.0000" type="priority" />
	<node id="385764" x="675547.8852" y="5920419.5670" z="0.0000" type="priority" />
	<node id="385763" x="675101.4913" y="5920750.9245" z="0.0000" type="priority" />
	<node id="12115818" x="678923.7360" y="5920254.3619" z="0.0000" type="priority" />
	<node id="12115815" x="678810.3012" y="5920543.6591" z="0.0000" type="priority" />
	<node id="385760" x="674947.3932" y="5919919.2933" z="0.0000" type="priority" />
	<node id="6397491720" x="675087.7413" y="5919072.8401" z="0.0000" type="priority" />
	<node id="385762" x="675494.7583" y="5920355.8466" z="0.0000" type="priority" />
	<node id="12115819" x="678911.9592" y="5920235.1958" z="0.0000" type="priority" />
	<node id="385761" x="675321.9259" y="5920191.4661" z="0.0000" type="priority" />
	<node id="528733623" x="678164.1481" y="5919291.2970" z="0.0000" type="priority" />
	<node id="528733622" x="678171.6366" y="5919281.3991" z="0.0000" type="priority" />
	<node id="528733620" x="678200.4900" y="5919256.4001" z="0.0000" type="priority" />
	<node id="12115813" x="679319.8467" y="5920899.5308" z="0.0000" type="priority" />
	<node id="528733627" x="678202.4118" y="5919261.9517" z="0.0000" type="priority" />
	<node id="12115811" x="678360.6366" y="5920363.2038" z="0.0000" type="priority" />
	<node id="528733625" x="678174.6566" y="5919351.8099" z="0.0000" type="priority" />
	<node id="4705256279" x="675015.1386" y="5917766.7819" z="0.0000" type="priority" />
	<node id="6261875447" x="674872.9984" y="5919177.0857" z="0.0000" type="priority" />
	<node id="5565974816" x="674805.0592" y="5917640.8448" z="0.0000" type="priority" />
	<node id="2495602493" x="678656.2807" y="5919611.3943" z="0.0000" type="priority" />
	<node id="16465219" x="674851.8221" y="5917689.9318" z="0.0000" type="priority" />
	<node id="2495602495" x="678803.0485" y="5919632.5071" z="0.0000" type="priority" />
	<node id="2495602492" x="678795.7597" y="5919611.3055" z="0.0000" type="priority" />
	<node id="2495602491" x="678685.0967" y="5919602.2561" z="0.0000" type="priority" />
	<node id="3739628944" x="678955.8988" y="5917914.8364" z="0.0000" type="priority" />
	<node id="2495602489" x="678705.9459" y="5919592.0160" z="0.0000" type="priority" />
	<node id="4705256259" x="675009.4990" y="5917793.8475" z="0.0000" type="priority" />
	<node id="5546953992" x="678721.2844" y="5918352.5261" z="0.0000" type="priority" />
	<node id="5546953993" x="678713.9612" y="5918394.2038" z="0.0000" type="priority" />
	<node id="5546953988" x="678678.8362" y="5918315.7337" z="0.0000" type="priority" />
	<node id="5546953989" x="678749.6430" y="5918347.0681" z="0.0000" type="priority" />
	<node id="5546953986" x="678766.8624" y="5918314.9069" z="0.0000" type="priority" />
	<node id="6818346916" x="676830.3871" y="5920522.9387" z="0.0000" type="priority" />
	<node id="3739628935" x="678964.6335" y="5917871.6418" z="0.0000" type="priority" />
	<node id="6797473787" x="678009.5453" y="5919344.1728" z="0.0000" type="priority" />
	<node id="5050788437" x="678685.1681" y="5917885.5772" z="0.0000" type="priority" />
	<node id="3733723648" x="678822.2030" y="5918042.4949" z="0.0000" type="priority" />
	<node id="11675180" x="676011.8707" y="5917706.1939" z="0.0000" type="priority" />
	<node id="11675181" x="676187.8049" y="5917639.0090" z="0.0000" type="priority" />
	<node id="4281231686" x="675028.6298" y="5919356.4588" z="0.0000" type="priority" />
	<node id="4281231684" x="675076.4101" y="5919350.3822" z="0.0000" type="priority" />
	<node id="4281231683" x="675086.0127" y="5919343.9768" z="0.0000" type="priority" />
	<node id="3793626478" x="679099.0767" y="5918466.8751" z="0.0000" type="priority" />
	<node id="26954798" x="674680.0570" y="5918587.8308" z="0.0000" type="priority" />
	<node id="827307968" x="678135.3942" y="5920239.4770" z="0.0000" type="priority" />
	<node id="827307965" x="677627.9374" y="5919896.1156" z="0.0000" type="priority" />
	<node id="827307962" x="677031.3207" y="5919500.0242" z="0.0000" type="priority" />
	<node id="721746782" x="675082.9021" y="5917720.0022" z="0.0000" type="priority" />
	<node id="3793626484" x="679078.9234" y="5918444.2408" z="0.0000" type="priority" />
	<node id="4294821321" x="675109.1904" y="5917806.6577" z="0.0000" type="priority" />
	<node id="849007457" x="678167.0037" y="5918811.3733" z="0.0000" type="priority" />
	<node id="3793626486" x="679070.5299" y="5918434.8137" z="0.0000" type="priority" />
	<node id="3793626480" x="679090.7983" y="5918457.5749" z="0.0000" type="priority" />
	<node id="3793626482" x="679083.4010" y="5918449.2768" z="0.0000" type="priority" />
	<node id="11675176" x="675626.2643" y="5917965.5906" z="0.0000" type="priority" />
	<node id="3793626488" x="679057.1914" y="5918419.8542" z="0.0000" type="priority" />
	<node id="11675178" x="675634.8265" y="5917977.4898" z="0.0000" type="priority" />
	<node id="11675179" x="676017.0230" y="5917729.5830" z="0.0000" type="priority" />
	<node id="849007469" x="678156.8943" y="5918838.0344" z="0.0000" type="priority" />
	<node id="849007460" x="678200.9558" y="5918724.2759" z="0.0000" type="priority" />
	<node id="2369090986" x="678595.9993" y="5917897.4444" z="0.0000" type="priority" />
	<node id="2369090983" x="678577.1293" y="5917895.9657" z="0.0000" type="priority" />
	<node id="2369090981" x="678617.3702" y="5917894.2284" z="0.0000" type="priority" />
	<node id="1230024610" x="678617.8883" y="5918229.7986" z="0.0000" type="priority" />
	<node id="1230024612" x="678861.0425" y="5918045.2286" z="0.0000" type="priority" />
	<node id="1230024611" x="678756.3788" y="5918103.0841" z="0.0000" type="priority" />
	<node id="4266209111" x="675686.8423" y="5918130.5857" z="0.0000" type="priority" />
	<node id="2572910022" x="674813.8250" y="5918053.5678" z="0.0000" type="priority" />
	<node id="1230024619" x="678556.1944" y="5918082.0588" z="0.0000" type="priority" />
	<node id="849007479" x="678220.2075" y="5918682.9010" z="0.0000" type="priority" />
	<node id="849007473" x="678181.8179" y="5918781.5923" z="0.0000" type="priority" />
	<node id="1230024602" x="678721.8096" y="5918172.2576" z="0.0000" type="priority" />
	<node id="1230024605" x="678746.7472" y="5918239.5968" z="0.0000" type="priority" />
	<node id="4266209106" x="675745.4317" y="5918071.7932" z="0.0000" type="priority" />
	<node id="1230024600" x="678510.7633" y="5918279.1134" z="0.0000" type="priority" />
	<node id="1230024607" x="678555.2160" y="5918143.2650" z="0.0000" type="priority" />
	<node id="4266209100" x="675763.5346" y="5918038.7751" z="0.0000" type="priority" />