<connections>
	<connection from="335052156_5151492622_277265854_5151492622" to="335052156_5151492622_277265854_307174561" />
	<connection from="335052156_5151492622_277265854_307174561" to="335052156_5151492622_277265854_6304095" />
	<connection from="335052156_5151492622_277265854_6304095" to="335052156_5151492622_277265854_277265858" />
	<connection from="335052156_5151492622_277265854_277265858" to="335052156_5151492622_277265854_2572910091" />
	<connection from="335052156_5151492622_277265854_2572910091" to="335052156_5151492622_277265854_277265855" />
	<connection from="335052156_5151492622_277265854_277265855" to="42351190_277265854_528733620_277265854" />
	<connection from="335052156_5151492622_277265854_277265855" to="335052156_277265854_5151492622_277265854" />
	<connection from="335052156_5151492622_277265854_277265855" to="335052156_277265854_3421809957_277265854" />
	<connection from="42351174_528733587_528733583_528733587" to="42351174_528733587_528733583_2375495330" />
	<connection from="42351174_528733587_528733583_2375495330" to="42351174_528733587_528733583_528733585" />
	<connection from="42351174_528733587_528733583_528733585" to="42351174_528733587_528733583_2375495328" />
	<connection from="42351174_528733587_528733583_2375495328" to="42351174_528733587_528733583_2375495326" />
	<connection from="42351174_528733587_528733583_2375495326" to="724630030_528733583_297209453_528733583" />
	<connection from="42351174_528733587_528733583_2375495326" to="724630030_528733583_333097147_528733583" />
	<connection from="42351174_528733587_528733583_2375495326" to="42351174_528733583_528733587_528733583" />
	<connection from="50728198_248088241_248382518_248088241" to="50728198_248088241_248382518_3273711132" />
	<connection from="50728198_248088241_248382518_3273711132" to="50728198_248382518_248088241_248382518" />
	<connection from="50728198_248088241_248382518_3273711132" to="320734141_248382518_12114939_248382518" />
	<connection from="70698346_843308020_798843312_843308020" to="65416332_798843312_798843303_798843312" />
	<connection from="70698346_843308020_798843312_843308020" to="65416332_798843312_798843302_798843312" />
	<connection from="70698346_843308020_798843312_843308020" to="70698346_798843312_843308020_798843312" />
	<connection from="39436715_472383956_472383955_472383956" to="39436715_472383955_472383956_472383955" />
	<connection from="106974039_1230016459_1230016495_1230016459" to="106974039_1230016459_1230016495_2686926134" />
	<connection from="106974039_1230016459_1230016495_2686926134" to="106974039_1230016459_1230016495_1230016502" />
	<connection from="106974039_1230016459_1230016495_1230016502" to="106974039_1230016459_1230016495_2686926137" />
	<connection from="106974039_1230016459_1230016495_2686926137" to="106974039_1230016459_1230016495_1230016402" />
	<connection from="106974039_1230016459_1230016495_1230016402" to="106974039_1230016495_1230016459_1230016495" />
	<connection from="106974039_1230016459_1230016495_1230016402" to="106974042_1230016495_1230016474_1230016495" />
	<connection from="106974039_1230016459_1230016495_1230016402" to="106974039_1230016495_1230016395_1230016495" />
	<connection from="106974219_1230024594_1230024619_1230024594" to="106974213_1230024619_1230024607_1230024619" />
	<connection from="106974219_1230024594_1230024619_1230024594" to="106974219_1230024619_1230024585_1230024619" />
	<connection from="106974219_1230024594_1230024619_1230024594" to="106974219_1230024619_1230024594_1230024619" />
	<connection from="106974219_1230024594_1230024619_1230024594" to="106974213_1230024619_1230024635_1230024619" />
	<connection from="61047422_12114972_60936301_12114972" to="61047422_12114972_60936301_2967255867" />
	<connection from="61047422_12114972_60936301_2967255867" to="61047422_12114972_60936301_2967255865" />
	<connection from="61047422_12114972_60936301_2967255865" to="61047422_12114972_60936301_2967255863" />
	<connection from="61047422_12114972_60936301_2967255863" to="61047422_12114972_60936301_2967255860" />
	<connection from="61047422_12114972_60936301_2967255860" to="61047422_12114972_60936301_60936295" />
	<connection from="61047422_12114972_60936301_60936295" to="61047422_12114972_60936301_2967255858" />
	<connection from="61047422_12114972_60936301_2967255858" to="61047422_12114972_60936301_60936294" />
	<connection from="61047422_12114972_60936301_60936294" to="61047422_12114972_60936301_12114969" />
	<connection from="61047422_12114972_60936301_12114969" to="8584394_60936301_12114971_60936301" />
	<connection from="356473663_3619139704_3619139703_3619139704" to="356473663_3619139704_3619139703_4281232589" />
	<connection from="356473663_3619139704_3619139703_4281232589" to="356473663_3619139704_3619139703_6565261109" />
	<connection from="356473663_3619139704_3619139703_6565261109" to="356473663_3619139703_3619139704_3619139703" />
	<connection from="349887382_3556717788_3619139704_3556717788" to="349887382_3556717788_3619139704_4281231082" />
	<connection from="349887382_3556717788_3619139704_4281231082" to="349887382_3619139704_3556717788_3619139704" />
	<connection from="349887382_3556717788_3619139704_4281231082" to="356473663_3619139704_3619139703_3619139704" />
	<connection from="349887382_3556717788_3619139704_4281231082" to="349887382_3619139704_3556717792_3619139704" />
	<connection from="74190080_877556712_877556583_877556712" to="74190080_877556712_877556583_877556754" />
	<connection from="74190080_877556712_877556583_877556754" to="74190080_877556712_877556583_2686868958" />
	<connection from="74190080_877556712_877556583_2686868958" to="74190080_877556712_877556583_2686868957" />
	<connection from="74190080_877556712_877556583_2686868957" to="3785938_877556583_307177222_877556583" />
	<connection from="74190080_877556712_877556583_2686868957" to="3785938_877556583_877556484_877556583" />
	<connection from="74190080_877556712_877556583_2686868957" to="74190080_877556583_877556712_877556583" />
	<connection from="3785900_18896240_18896244_18896240" to="3785900_18896244_18896240_18896244" />
	<connection from="3785900_18896240_18896244_18896240" to="7963395_18896244_59468071_18896244" />
	<connection from="3785900_18896240_18896244_18896240" to="3785900_18896244_26374831_18896244" />
	<connection from="22768286_244420999_385682_244420999" to="22768287_385682_248087986_385682" />
	<connection from="42350333_528721686_528721690_528721686" to="42350333_528721686_528721690_528721687" />
	<connection from="42350333_528721686_528721690_528721687" to="42350333_528721686_528721690_2372746805" />
	<connection from="42350333_528721686_528721690_2372746805" to="42350333_528721686_528721690_528721688" />
	<connection from="42350333_528721686_528721690_528721688" to="42350333_528721686_528721690_2372746804" />
	<connection from="42350333_528721686_528721690_2372746804" to="42350333_528721686_528721690_2372746803" />
	<connection from="42350333_528721686_528721690_2372746803" to="42350333_528721690_528721686_528721690" />
	<connection from="3701394_5546738414_1261484560_5546738414" to="3701394_5546738414_1261484560_2572910147" />
	<connection from="3701394_5546738414_1261484560_2572910147" to="3701394_5546738414_1261484560_6797473813" />
	<connection from="3701394_5546738414_1261484560_6797473813" to="3701394_5546738414_1261484560_2572910149" />
	<connection from="3701394_5546738414_1261484560_2572910149" to="3701394_5546738414_1261484560_2572910152" />
	<connection from="3701394_5546738414_1261484560_2572910152" to="3701394_5546738414_1261484560_2572910154" />
	<connection from="3701394_5546738414_1261484560_2572910154" to="3701394_5546738414_1261484560_6304069" />
	<connection from="3701394_5546738414_1261484560_6304069" to="3701394_5546738414_1261484560_2572910160" />
	<connection from="3701394_5546738414_1261484560_2572910160" to="3701394_5546738414_1261484560_528743438" />
	<connection from="3701394_5546738414_1261484560_528743438" to="3701394_5546738414_1261484560_6304063" />
	<connection from="3701394_5546738414_1261484560_6304063" to="3701394_1261484560_6300879_1261484560" />
	<connection from="3701394_5546738414_1261484560_6304063" to="3701394_1261484560_5546738414_1261484560" />
	<connection from="3701394_5546738414_1261484560_6304063" to="579071431_1261484560_5546738413_1261484560" />
	<connection from="3701394_5546738414_1261484560_6304063" to="110470097_1261484560_1261484528_1261484560" />
	<connection from="72243490_291447152_12239514_291447152" to="72243490_291447152_12239514_2688753861" />
	<connection from="72243490_291447152_12239514_2688753861" to="72243490_291447152_12239514_615213593" />
	<connection from="72243490_291447152_12239514_615213593" to="72243490_291447152_12239514_5083532871" />
	<connection from="72243490_291447152_12239514_5083532871" to="72243490_291447152_12239514_385761" />
	<connection from="72243490_291447152_12239514_385761" to="72243490_291447152_12239514_2962705683" />
	<connection from="72243490_291447152_12239514_2962705683" to="72243490_291447152_12239514_255966943" />
	<connection from="72243490_291447152_12239514_255966943" to="72243490_291447152_12239514_2688753856" />
	<connection from="72243490_291447152_12239514_2688753856" to="72243490_291447152_12239514_27185145" />
	<connection from="72243490_291447152_12239514_27185145" to="72243490_291447152_12239514_2688753854" />
	<connection from="72243490_291447152_12239514_2688753854" to="72243490_291447152_12239514_243919855" />
	<connection from="72243490_291447152_12239514_243919855" to="72243490_291447152_12239514_2688753851" />
	<connection from="72243490_291447152_12239514_2688753851" to="72243490_291447152_12239514_385760" />
	<connection from="72243490_291447152_12239514_385760" to="72243490_291447152_12239514_615214347" />
	<connection from="72243490_291447152_12239514_615214347" to="72243490_291447152_12239514_243919853" />
	<connection from="72243490_291447152_12239514_243919853" to="72243490_291447152_12239514_2688753850" />
	<connection from="72243490_291447152_12239514_2688753850" to="72243490_291447152_12239514_27465299" />
	<connection from="72243490_291447152_12239514_27465299" to="72243490_291447152_12239514_2688753848" />
	<connection from="72243490_291447152_12239514_2688753848" to="72243490_291447152_12239514_243919851" />
	<connection from="72243490_291447152_12239514_243919851" to="72243490_291447152_12239514_2688777051" />
	<connection from="72243490_291447152_12239514_2688777051" to="72243490_291447152_12239514_385759" />
	<connection from="72243490_291447152_12239514_385759" to="72243490_291447152_12239514_2562193538" />
	<connection from="72243490_291447152_12239514_2562193538" to="72243490_291447152_12239514_243919850" />
	<connection from="72243490_291447152_12239514_243919850" to="72243490_291447152_12239514_2562193536" />
	<connection from="72243490_291447152_12239514_2562193536" to="72243490_12239514_385745_12239514" />
	<connection from="72243490_291447152_12239514_2562193536" to="4368134_12239514_12239520_12239514" />
	<connection from="72243490_291447152_12239514_2562193536" to="72243490_12239514_291447152_12239514" />
	<connection from="73306096_869465086_869465084_869465086" to="73306096_869465086_869465084_869465120" />
	<connection from="73306096_869465086_869465084_869465120" to="73306096_869465086_869465084_869465096" />
	<connection from="73306096_869465086_869465084_869465096" to="51972990_869465084_869465100_869465084" />
	<connection from="333903171_1230024612_249200528_1230024612" to="333903171_1230024612_249200528_5555502401" />
	<connection from="333903171_1230024612_249200528_5555502401" to="112265989_249200528_1276542242_249200528" />
	<connection from="333903171_1230024612_249200528_5555502401" to="333903170_249200528_11675230_249200528" />
	<connection from="333903171_1230024612_249200528_5555502401" to="333903171_249200528_1230024612_249200528" />
	<connection from="7989992_18896260_528733712_18896260" to="7989992_18896260_528733712_2686899205" />
	<connection from="7989992_18896260_528733712_2686899205" to="7989992_18896260_528733712_2686899230" />
	<connection from="7989992_18896260_528733712_2686899230" to="7989992_18896260_528733712_2686899235" />
	<connection from="7989992_18896260_528733712_2686899235" to="7989992_18896260_528733712_2686899237" />
	<connection from="7989992_18896260_528733712_2686899237" to="7989992_18896260_528733712_2686899240" />
	<connection from="7989992_18896260_528733712_2686899240" to="7989992_528733712_18896260_528733712" />
	<connection from="7989992_18896260_528733712_2686899240" to="3793265_528733712_12280659_528733712" />
	<connection from="7989992_18896260_528733712_2686899240" to="3793265_528733712_3717739196_528733712" />
	<connection from="335052153_3631957996_254019346_3631957996" to="539871115_254019346_2686869019_254019346" />
	<connection from="335052153_3631957996_254019346_3631957996" to="100636944_254019346_3631957995_254019346" />
	<connection from="73306097_869465118_869465122_869465118" to="73306097_869465118_869465122_869465104" />
	<connection from="73306097_869465118_869465122_869465104" to="73306097_869465118_869465122_869465093" />
	<connection from="73306097_869465118_869465122_869465093" to="73306097_869465118_869465122_869465123" />
	<connection from="73306097_869465118_869465122_869465123" to="51972990_869465122_869465125_869465122" />
	<connection from="369273040_3730758553_3730758551_3730758553" to="369273040_3730758553_3730758551_3730758552" />
	<connection from="369273040_3730758553_3730758551_3730758552" to="369273040_3730758551_3730758549_3730758551" />
	<connection from="369273040_3730758553_3730758551_3730758552" to="42350345_3730758551_528721714_3730758551" />
	<connection from="369273040_3730758553_3730758551_3730758552" to="369273040_3730758551_3730758553_3730758551" />
	<connection from="228612595_5555537625_2372746783_5555537625" to="228612595_5555537625_2372746783_2372746788" />
	<connection from="228612595_5555537625_2372746783_2372746788" to="228612595_2372746783_5555537625_2372746783" />
	<connection from="228612595_5555537625_2372746783_2372746788" to="23086707_2372746783_249245019_2372746783" />
	<connection from="228612595_5555537625_2372746783_2372746788" to="23086707_2372746783_2372746781_2372746783" />
	<connection from="48748968_292975017_618699183_292975017" to="48748968_292975017_618699183_818880758" />
	<connection from="48748968_292975017_618699183_818880758" to="48748968_618699183_292975017_618699183" />
	<connection from="48748968_292975017_618699183_818880758" to="48748965_618699183_618699184_618699183" />
	<connection from="335052155_3421809961_11675519_3421809961" to="335052155_3421809961_11675519_4022423189" />
	<connection from="335052155_3421809961_11675519_4022423189" to="335052155_3421809961_11675519_2686899305" />
	<connection from="335052155_3421809961_11675519_2686899305" to="335052155_3421809961_11675519_4022407970" />
	<connection from="335052155_3421809961_11675519_4022407970" to="335052155_3421809961_11675519_4022407977" />
	<connection from="335052155_3421809961_11675519_4022407977" to="335052155_3421809961_11675519_4022407982" />
	<connection from="335052155_3421809961_11675519_4022407982" to="335052155_3421809961_11675519_249193365" />
	<connection from="335052155_3421809961_11675519_249193365" to="335052155_3421809961_11675519_2686899303" />
	<connection from="335052155_3421809961_11675519_2686899303" to="335052155_3421809961_11675519_12115824" />
	<connection from="335052155_3421809961_11675519_12115824" to="335052155_3421809961_11675519_2686899298" />
	<connection from="335052155_3421809961_11675519_2686899298" to="385711377_11675519_11675520_11675519" />
	<connection from="428992626_4281236993_4281231686_4281236993" to="428992626_4281236993_4281231686_4281236992" />
	<connection from="428992626_4281236993_4281231686_4281236992" to="428992626_4281236993_4281231686_6304372988" />
	<connection from="428992626_4281236993_4281231686_6304372988" to="428992626_4281236993_4281231686_4281236989" />
	<connection from="428992626_4281236993_4281231686_4281236989" to="428992626_4281231686_4281236993_4281231686" />
	<connection from="228894140_2375515846_2375515853_2375515846" to="228894140_2375515846_2375515853_2375515848" />
	<connection from="228894140_2375515846_2375515853_2375515848" to="228894140_2375515846_2375515853_2375515849" />
	<connection from="228894140_2375515846_2375515853_2375515849" to="228894140_2375515846_2375515853_2375515852" />
	<connection from="228894140_2375515846_2375515853_2375515852" to="228894140_2375515853_2375515846_2375515853" />
	<connection from="3339417_1278867226_16465404_1278867226" to="3339417_1278867226_16465404_16465400" />
	<connection from="3339417_1278867226_16465404_16465400" to="3339417_1278867226_16465404_249336793" />
	<connection from="3339417_1278867226_16465404_249336793" to="3339417_1278867226_16465404_4294821290" />
	<connection from="3339417_1278867226_16465404_4294821290" to="3339417_1278867226_16465404_16465402" />
	<connection from="3339417_1278867226_16465404_16465402" to="3339417_16465404_16465417_16465404" />
	<connection from="3339417_1278867226_16465404_16465402" to="3339417_16465404_1278867226_16465404" />
	<connection from="3339417_1278867226_16465404_16465402" to="3339416_16465404_16465418_16465404" />
	<connection from="72272655_2964381839_858744682_2964381839" to="72272655_2964381839_858744682_6198972531" />
	<connection from="72272655_2964381839_858744682_6198972531" to="72272655_2964381839_858744682_6198972532" />
	<connection from="72272655_2964381839_858744682_6198972532" to="72272655_2964381839_858744682_6198972533" />
	<connection from="72272655_2964381839_858744682_6198972533" to="72272655_2964381839_858744682_6198972534" />
	<connection from="72272655_2964381839_858744682_6198972534" to="72272655_2964381839_858744682_6198972535" />
	<connection from="72272655_2964381839_858744682_6198972535" to="72272655_2964381839_858744682_6198972536" />
	<connection from="72272655_2964381839_858744682_6198972536" to="72272655_2964381839_858744682_6198972537" />
	<connection from="72272655_2964381839_858744682_6198972537" to="72272655_2964381839_858744682_16465219" />
	<connection from="72272655_2964381839_858744682_16465219" to="72272655_2964381839_858744682_6198972538" />
	<connection from="72272655_2964381839_858744682_6198972538" to="72272655_2964381839_858744682_2719789561" />
	<connection from="72272655_2964381839_858744682_2719789561" to="72272655_2964381839_858744682_12639598" />
	<connection from="72272655_2964381839_858744682_12639598" to="72272655_2964381839_858744682_5565974816" />
	<connection from="72272655_2964381839_858744682_5565974816" to="72272655_2964381839_858744682_6198972539" />
	<connection from="72272655_2964381839_858744682_6198972539" to="72272655_2964381839_858744682_12639601" />
	<connection from="72272655_2964381839_858744682_12639601" to="72272655_2964381839_858744682_6198972540" />
	<connection from="72272655_2964381839_858744682_6198972540" to="72272655_2964381839_858744682_6198972541" />
	<connection from="72272655_2964381839_858744682_6198972541" to="72272655_2964381839_858744682_385288754" />
	<connection from="72272655_2964381839_858744682_385288754" to="72272655_2964381839_858744682_2719789549" />
	<connection from="72272655_2964381839_858744682_2719789549" to="72272655_2964381839_858744682_12639602" />
	<connection from="72272655_2964381839_858744682_12639602" to="72272655_2964381839_858744682_12867394" />
	<connection from="72272655_2964381839_858744682_12867394" to="72272655_2964381839_858744682_12639603" />
	<connection from="72272655_2964381839_858744682_12639603" to="72272655_2964381839_858744682_14957890" />
	<connection from="72272655_2964381839_858744682_14957890" to="72272655_2964381839_858744682_5565998651" />
	<connection from="72272655_2964381839_858744682_5565998651" to="72272655_2964381839_858744682_2719789527" />
	<connection from="72272655_2964381839_858744682_2719789527" to="72272655_2964381839_858744682_302047249" />
	<connection from="72272655_2964381839_858744682_302047249" to="72272655_2964381839_858744682_1387783344" />
	<connection from="72272655_2964381839_858744682_1387783344" to="72272655_2964381839_858744682_12639604" />
	<connection from="72272655_2964381839_858744682_12639604" to="72272655_2964381839_858744682_858744707" />
	<connection from="72272655_2964381839_858744682_858744707" to="72272655_2964381839_858744682_2752855727" />
	<connection from="72272655_2964381839_858744682_2752855727" to="72272655_2964381839_858744682_858744687" />
	<connection from="72272655_2964381839_858744682_858744687" to="72272655_2964381839_858744682_2752855726" />
	<connection from="72272655_2964381839_858744682_2752855726" to="72272655_2964381839_858744682_12639605" />
	<connection from="72272655_2964381839_858744682_12639605" to="72272655_2964381839_858744682_858744636" />
	<connection from="72272655_2964381839_858744682_858744636" to="72272655_2964381839_858744682_12639606" />
	<connection from="72272655_2964381839_858744682_12639606" to="72272655_2964381839_858744682_1387783324" />
	<connection from="72272655_2964381839_858744682_1387783324" to="72272655_2964381839_858744682_16465121" />
	<connection from="72272655_2964381839_858744682_16465121" to="72272655_2964381839_858744682_1385170764" />
	<connection from="72272655_2964381839_858744682_1385170764" to="72272655_2964381839_858744682_12639607" />
	<connection from="72272655_2964381839_858744682_12639607" to="72272655_2964381839_858744682_858744699" />
	<connection from="72272655_2964381839_858744682_858744699" to="72272655_2964381839_858744682_2752855771" />
	<connection from="72272655_2964381839_858744682_2752855771" to="72272655_858744682_2964381839_858744682" />
	<connection from="356473665_3619139707_3556717789_3619139707" to="356473665_3619139707_3556717789_4281232609" />
	<connection from="356473665_3619139707_3556717789_4281232609" to="356473665_3619139707_3556717789_4281232608" />
	<connection from="356473665_3619139707_3556717789_4281232608" to="356473665_3619139707_3556717789_4281232604" />
	<connection from="356473665_3619139707_3556717789_4281232604" to="356473665_3619139707_3556717789_6565261112" />
	<connection from="356473665_3619139707_3556717789_6565261112" to="349887383_3556717789_3556717790_3556717789" />
	<connection from="356473665_3619139707_3556717789_6565261112" to="349887382_3556717789_3556717792_3556717789" />
	<connection from="356473665_3619139707_3556717789_6565261112" to="356473665_3556717789_3619139707_3556717789" />
	<connection from="312790967_11853224_16054206_11853224" to="312790967_11853224_16054206_3186791833" />
	<connection from="312790967_11853224_16054206_3186791833" to="312790967_11853224_16054206_3186791832" />
	<connection from="312790967_11853224_16054206_3186791832" to="312790967_11853224_16054206_249335543" />
	<connection from="312790967_11853224_16054206_249335543" to="312790967_11853224_16054206_2719715559" />
	<connection from="312790967_11853224_16054206_2719715559" to="312790967_11853224_16054206_11853225" />
	<connection from="312790967_11853224_16054206_11853225" to="312790967_11853224_16054206_3920776531" />
	<connection from="312790967_11853224_16054206_3920776531" to="312790967_11853224_16054206_16054227" />
	<connection from="312790967_11853224_16054206_16054227" to="312790967_11853224_16054206_249335523" />
	<connection from="312790967_11853224_16054206_249335523" to="312790967_11853224_16054206_3186791823" />
	<connection from="312790967_11853224_16054206_3186791823" to="312790967_11853224_16054206_3186791822" />
	<connection from="312790967_11853224_16054206_3186791822" to="3265266_16054206_16054232_16054206" />
	<connection from="312790967_11853224_16054206_3186791822" to="312790967_16054206_11853224_16054206" />
	<connection from="312790967_11853224_16054206_3186791822" to="312790967_16054206_3186791815_16054206" />
	<connection from="724630031_6796012343_528733591_6796012343" to="724630031_528733591_6796012343_528733591" />
	<connection from="724630031_6796012343_528733591_6796012343" to="42351176_528733591_528733628_528733591" />
	<connection from="724630031_6796012343_528733591_6796012343" to="42351176_528733591_528733589_528733591" />
	<connection from="27089108_12867335_528733577_12867335" to="27089108_12867335_528733577_2686926352" />
	<connection from="27089108_12867335_528733577_2686926352" to="27089108_12867335_528733577_2686926360" />
	<connection from="27089108_12867335_528733577_2686926360" to="27089108_528733577_528733596_528733577" />
	<connection from="27089108_12867335_528733577_2686926360" to="27089108_528733577_12867335_528733577" />
	<connection from="27089108_12867335_528733577_2686926360" to="42351177_528733577_2686926359_528733577" />
	<connection from="8584365_300427460_60935973_300427460" to="8584365_60935973_300427460_60935973" />
	<connection from="8584365_300427460_60935973_300427460" to="23097785_60935973_249338170_60935973" />
	<connection from="8584365_300427460_60935973_300427460" to="8584365_60935973_11853586_60935973" />
	<connection from="263086489_2687083951_2687083926_2687083951" to="263086489_2687083951_2687083926_2687083945" />
	<connection from="263086489_2687083951_2687083926_2687083945" to="263086489_2687083951_2687083926_2687083942" />
	<connection from="263086489_2687083951_2687083926_2687083942" to="263086489_2687083951_2687083926_2687083938" />
	<connection from="263086489_2687083951_2687083926_2687083938" to="263086489_2687083951_2687083926_2687083930" />
	<connection from="263086489_2687083951_2687083926_2687083930" to="263086486_2687083926_2687083976_2687083926" />
	<connection from="263086489_2687083951_2687083926_2687083930" to="263086489_2687083926_2687083923_2687083926" />
	<connection from="263086489_2687083951_2687083926_2687083930" to="263086486_2687083926_2687083908_2687083926" />
	<connection from="263086489_2687083951_2687083926_2687083930" to="263086489_2687083926_2687083951_2687083926" />
	<connection from="430210087_4294821426_4294821536_4294821426" to="430210087_4294821426_4294821536_4294821451" />
	<connection from="430210087_4294821426_4294821536_4294821451" to="430210087_4294821426_4294821536_4294821459" />
	<connection from="430210087_4294821426_4294821536_4294821459" to="430210087_4294821426_4294821536_4294821466" />
	<connection from="430210087_4294821426_4294821536_4294821466" to="430210087_4294821426_4294821536_4294821474" />
	<connection from="430210087_4294821426_4294821536_4294821474" to="430210087_4294821426_4294821536_4294821484" />
	<connection from="430210087_4294821426_4294821536_4294821484" to="430210087_4294821426_4294821536_4294821495" />
	<connection from="430210087_4294821426_4294821536_4294821495" to="430210087_4294821536_4294821426_4294821536" />
	<connection from="27089074_297208480_297208479_297208480" to="27089074_297208480_297208479_2375495156" />
	<connection from="27089074_297208480_297208479_2375495156" to="27089087_297208479_297208419_297208479" />
	<connection from="27089074_297208480_297208479_2375495156" to="27089074_297208479_297208480_297208479" />
	<connection from="27089074_297208480_297208479_2375495156" to="27089087_297208479_297208424_297208479" />
	<connection from="42351162_2685293223_2375515878_2685293223" to="42351162_2685293223_2375515878_528733703" />
	<connection from="42351162_2685293223_2375515878_528733703" to="42351162_2685293223_2375515878_528733717" />
	<connection from="42351162_2685293223_2375515878_528733717" to="42351162_2685293223_2375515878_2375515887" />
	<connection from="42351162_2685293223_2375515878_2375515887" to="42351162_2685293223_2375515878_2375515882" />
	<connection from="42351162_2685293223_2375515878_2375515882" to="42351162_2375515878_2685293223_2375515878" />
	<connection from="42351162_2685293223_2375515878_2375515882" to="33530355_2375515878_12283594_2375515878" />
	<connection from="42351162_2685293223_2375515878_2375515882" to="33530355_2375515878_18896175_2375515878" />
	<connection from="60087562_12524855_746673031_12524855" to="60087562_12524855_746673031_746673022" />
	<connection from="60087562_12524855_746673031_746673022" to="60087562_12524855_746673031_746673037" />
	<connection from="60087562_12524855_746673031_746673037" to="60178140_746673031_746673035_746673031" />
	<connection from="42351178_528733651_528733596_528733651" to="42351178_528733596_528733651_528733596" />
	<connection from="42351178_528733651_528733596_528733651" to="27089108_528733596_297209453_528733596" />
	<connection from="42351178_528733651_528733596_528733651" to="27089108_528733596_528733577_528733596" />
	<connection from="106974037_1230016413_1230016490_1230016413" to="106974037_1230016413_1230016490_1230016464" />
	<connection from="106974037_1230016413_1230016490_1230016464" to="106974037_1230016413_1230016490_1230016434" />
	<connection from="106974037_1230016413_1230016490_1230016434" to="106974037_1230016490_1230016403_1230016490" />
	<connection from="106974037_1230016413_1230016490_1230016434" to="106974038_1230016490_1230016418_1230016490" />
	<connection from="106974037_1230016413_1230016490_1230016434" to="106974037_1230016490_1230016413_1230016490" />
	<connection from="263086486_2687083926_2687083976_2687083926" to="263086486_2687083926_2687083976_2687083937" />
	<connection from="263086486_2687083926_2687083976_2687083937" to="263086486_2687083926_2687083976_3725499252" />
	<connection from="263086486_2687083926_2687083976_3725499252" to="263086486_2687083926_2687083976_3725499254" />
	<connection from="263086486_2687083926_2687083976_3725499254" to="263086486_2687083926_2687083976_2687083970" />
	<connection from="263086486_2687083926_2687083976_2687083970" to="263086486_2687083926_2687083976_2687083973" />
	<connection from="263086486_2687083926_2687083976_2687083973" to="263086486_2687083976_2687083926_2687083976" />
	<connection from="263086486_2687083926_2687083976_2687083973" to="263086483_2687083976_2687083984_2687083976" />