<?xml version="1.0" encoding="UTF-8"?>

<!-- generated on Sun Feb  2 15:56:32 2020 by Eclipse SUMO polyconvert Version v1_4_0+0733-c26b5d337c
<configuration xmlns:xsi="http://www.w3.org/2001/XMLSchema-instance" xsi:noNamespaceSchemaLocation="http://sumo.dlr.de/xsd/polyconvertConfiguration.xsd">

    <input>
        <net-file value="osm.net.xml"/>
        <osm-files value="osm.nod.xml"/>
        <osm.keep-full-type value="true"/>
        <type-file value="/home/zen/sumo/data/typemap/osmPolyconvert.typ.xml"/>
    </input>

    <output>
        <output-file value="osm.poly.xml"/>
    </output>

    <processing>
        <poi-layer-offset value="5"/>
    </processing>

    <report>
        <verbose value="true"/>
    </report>

</configuration>
-->

<additional xmlns:xsi="http://www.w3.org/2001/XMLSchema-instance" xsi:noNamespaceSchemaLocation="http://sumo.dlr.de/xsd/additional_file.xsd">
    <location netOffset="-675969.99,-5918757.34" convBoundary="-4656.30,-1623.51,5840.04,5242.11" origBoundary="-6.421752,53.372755,-6.264674,53.436346" projParameter="+proj=utm +zone=29 +ellps=WGS84 +datum=WGS84 +units=m +no_defs"/>

    <poly id="114706387" type="building.yes" color="255,230,230" fill="1" layer="-1.00" shape="2764.242623,1619.711343 2747.331224,1651.638963 2752.004063,1654.098248 2751.444979,1655.157480 2784.941372,1672.691834 2786.234643,1669.989709 2787.297905,1671.622421 2789.089873,1672.993044 2790.907903,1673.495948 2792.185612,1673.677774 2793.863611,1673.128501 2795.400971,1672.072752 2796.648473,1670.761054 2797.306613,1669.193251 2797.371197,1667.480557 2797.112143,1665.878168 2798.477222,1665.684625 2801.898188,1667.628992 2813.507839,1645.692151 2764.242623,1619.711343"/>
    <poly id="114706400" type="building.yes" color="255,230,230" fill="1" layer="-1.00" shape="2824.571152,1588.652520 2822.307882,1593.601183 2831.311607,1597.705127 2833.574884,1592.756468 2824.571152,1588.652520"/>
    <poly id="148432296" type="landuse.grass" color="194,194,130" fill="1" layer="-3.00" shape="2818.829409,784.853664 2810.871292,787.404751 2805.784846,770.819050 2805.945846,766.548439 2812.528429,762.519923 2889.545474,736.356066 2898.426401,737.582009 2902.591798,741.692830 2905.289257,745.893068 2907.546419,752.059121 2907.865797,757.004949 2818.829409,784.853664"/>
    <poly id="157708331" type="building.yes" color="255,230,230" fill="1" layer="-1.00" shape="2492.814971,1593.270263 2528.379161,1530.637273 2593.850680,1567.650275 2558.286248,1630.271668 2492.814971,1593.270263"/>
    <poly id="157708331#1" type="shop.car_parts" color="237,199,255" fill="1" layer="-1.00" shape="2492.814971,1593.270263 2528.379161,1530.637273 2593.850680,1567.650275 2558.286248,1630.271668 2492.814971,1593.270263"/>
    <poly id="157708332" type="building.yes" color="255,230,230" fill="1" layer="-1.00" shape="2388.304658,1534.542495 2412.138624,1492.817335 2479.961448,1531.409533 2456.127446,1573.123241 2388.304658,1534.542495"/>
    <poly id="157708333" type="amenity.storage" color="237,199,199" fill="1" layer="-1.00" shape="2284.531578,1474.552993 2308.873060,1432.233895 2377.079608,1471.284436 2352.744730,1513.592324 2284.531578,1474.552993"/>
    <poly id="157708333#1" type="building.yes" color="255,230,230" fill="1" layer="-1.00" shape="2284.531578,1474.552993 2308.873060,1432.233895 2377.079608,1471.284436 2352.744730,1513.592324 2284.531578,1474.552993"/>
    <poly id="23750875" type="building.yes" color="255,230,230" fill="1" layer="-1.00" shape="1087.686523,1404.167911 1132.513120,1440.901375 1165.938435,1400.297328 1150.916634,1387.986603 1155.379082,1382.562552 1129.196973,1361.114727 1124.734954,1366.527681 1121.111665,1363.563553 1087.686523,1404.167911"/>
    <poly id="241987288" type="landuse.grass" color="194,194,130" fill="1" layer="-3.00" shape="2874.640322,1223.124465 2885.956816,1226.814535 2890.161345,1213.641900 2871.240188,1188.147896 2864.042045,1167.918527 2869.581863,1148.815560 2857.055494,1143.665486 2842.165616,1144.351306 2863.593977,1201.858966 2864.557016,1222.387747 2874.640322,1223.124465"/>
    <poly id="241987289" type="landuse.residential" color="235,235,227" fill="1" layer="-3.00" shape="2885.987533,1226.882517 2925.146012,1245.967752 2968.476197,1264.564809 3017.413221,1285.211580 3028.252469,1282.847609 3038.315560,1264.194001 3024.150197,1216.426230 2870.626355,1148.654486 2864.162530,1167.900797 2871.293784,1188.138780 2890.194580,1213.643154 2885.987533,1226.882517"/>
    <poly id="241987290" type="landuse.residential" color="235,235,227" fill="1" layer="-3.00" shape="2762.502769,1453.823993 2858.726234,1413.683246 2912.665107,1390.993431 2950.647961,1367.111760 3002.527626,1334.110090 3020.729811,1300.505690 2961.278528,1273.793224 2922.507300,1256.626742 2885.850647,1242.157604 2861.983549,1236.791325 2840.518324,1235.335810 2822.451082,1235.912987 2796.946252,1238.849319 2734.341188,1256.558523 2701.224342,1266.313989 2690.220674,1277.816130 2741.403846,1400.650414 2762.502769,1453.823993"/>
    <poly id="241987292" type="landuse.residential" color="235,235,227" fill="1" layer="-3.00" shape="2658.245311,1184.662820 2743.220547,1162.082307 2845.018744,1130.826969 2832.470505,1090.950353 2808.891967,1025.120304 2793.302558,976.018952 2774.549471,962.448557 2747.594154,957.735000 2717.520968,876.948545 2720.625669,875.996369 2724.125372,885.583715 2748.476527,877.803279 2737.876532,850.307030 2738.207286,834.994734 2807.289127,812.673630 2776.208100,736.014133 2742.528431,637.305605 2660.901106,657.540309 2449.428926,721.436202 2547.906200,946.381883 2585.082063,1031.822630 2658.245311,1184.662820"/>
    <poly id="241987293" type="landuse.grass" color="194,194,130" fill="1" layer="-3.00" shape="3039.813181,1259.082868 3053.340389,1234.011383 3051.933293,1230.906653 3029.893859,1221.209326 3027.644729,1223.129118 3039.813181,1259.082868"/>
    <poly id="241987294" type="landuse.grass" color="194,194,130" fill="1" layer="-3.00" shape="2628.553504,1154.376064 2613.930041,1161.777206 2644.523612,1228.204562 2657.382920,1220.982078 2667.328085,1245.702634 2671.885422,1241.876092 2662.762076,1219.547569 2628.553504,1154.376064"/>
    <poly id="241987295" type="landuse.residential" color="235,235,227" fill="1" layer="-3.00" shape="2691.880991,1255.481818 2733.517803,1245.379163 2799.617904,1224.661026 2838.007284,1220.551143 2864.372999,1222.325121 2863.586911,1201.869836 2840.943687,1144.628204 2743.524757,1172.907983 2666.216336,1200.477213 2691.880991,1255.481818"/>
    <poly id="250372616" type="building.yes" color="255,230,230" fill="1" layer="-1.00" shape="1139.078649,1316.100682 1194.115647,1315.795863 1193.823827,1264.822137 1138.786239,1265.126972 1139.078649,1316.100682"/>
    <poly id="250372617" type="building.yes" color="255,230,230" fill="1" layer="-1.00" shape="1032.126630,1219.358127 1032.243356,1255.813745 1062.864995,1255.720797 1062.741857,1219.264925 1032.126630,1219.358127"/>
    <poly id="250372621" type="landuse.commercial" color="209,209,204" fill="1" layer="-3.00" shape="1069.437362,772.677938 1023.367332,882.316537 1021.141875,887.545796 975.655803,973.919200 960.719434,992.985146 992.822847,1047.941184 1028.971218,1062.276094 1077.032627,1074.695061 1120.077686,1078.663546 1214.740854,1078.947972 1265.251780,1083.163360 1284.875124,1089.743813 1302.108465,1093.305967 1308.070659,1049.560036 1271.671255,1030.558318 1313.315545,976.218584 1332.913272,942.905550 1248.539466,886.661486 1069.437362,772.677938"/>
    <poly id="250373473" type="landuse.commercial" color="209,209,204" fill="1" layer="-3.00" shape="799.481422,1809.478337 795.132448,1676.586163 789.933301,1554.877234 982.279295,1545.870608 983.666213,1573.263605 986.108063,1578.277284 984.815509,1601.315953 980.524609,1607.503860 988.430313,1618.947044 799.481422,1809.478337"/>
    <poly id="263068548" type="building.yes" color="255,230,230" fill="1" layer="-1.00" shape="3069.781140,1414.175558 3071.874977,1423.064184 3087.528842,1419.400931 3085.428805,1410.500925 3069.781140,1414.175558"/>
    <poly id="263068550" type="building.roof" color="255,230,230" fill="1" layer="-1.00" shape="3052.860149,1338.048420 3070.968424,1347.129674 3074.637992,1339.850847 3071.887567,1338.477338 3076.795730,1328.717133 3066.233450,1323.395617 3061.311171,1333.177574 3056.522628,1330.780450 3052.860149,1338.048420"/>
    <poly id="263068551" type="building.yes" color="255,230,230" fill="1" layer="-1.00" shape="3079.637116,1330.149765 3083.845120,1321.833241 3078.449759,1319.112473 3079.269655,1317.495124 3069.197466,1312.414856 3064.169170,1322.359866 3066.233450,1323.395617 3076.795730,1328.717133 3079.637116,1330.149765"/>
    <poly id="263086474" type="building.yes" color="255,230,230" fill="1" layer="-1.00" shape="2205.817263,1023.603605 2228.051926,1025.686507 2235.364394,948.012654 2213.129366,945.929725 2205.817263,1023.603605"/>
    <poly id="263086475" type="building.yes" color="255,230,230" fill="1" layer="-1.00" shape="2216.073416,1161.988991 2228.308976,1222.355380 2255.888672,1216.798820 2243.653437,1156.432354 2216.073416,1161.988991"/>
    <poly id="263086476" type="building.yes" color="255,230,230" fill="1" layer="-1.00" shape="2163.813590,912.692497 2162.392868,927.830135 2240.520257,935.164860 2241.947877,920.027489 2163.813590,912.692497"/>
    <poly id="263086477" type="building.yes" color="255,230,230" fill="1" layer="-1.00" shape="2200.271832,1087.745464 2220.873090,1089.711288 2226.726779,1028.710551 2206.125255,1026.744706 2200.271832,1087.745464"/>
    <poly id="263086478" type="building.yes" color="255,230,230" fill="1" layer="-1.00" shape="2001.018254,1089.818169 2023.044763,1056.298179 1987.941110,1033.341236 1965.915185,1066.850263 2001.018254,1089.818169"/>
    <poly id="263086479" type="building.yes" color="255,230,230" fill="1" layer="-1.00" shape="2261.032271,1300.954948 2260.409756,1231.458164 2230.992633,1231.711188 2231.615158,1301.219080 2261.032271,1300.954948"/>
    <poly id="263086480" type="building.yes" color="255,230,230" fill="1" layer="-1.00" shape="2353.907214,1031.030473 2341.789140,1002.965813 2333.332035,1006.590338 2331.514476,1033.329062 2334.184320,1039.510329 2353.907214,1031.030473"/>
    <poly id="263086481" type="building.yes" color="255,230,230" fill="1" layer="-1.00" shape="2198.261672,1109.532082 2214.168336,1152.105599 2240.347243,1142.386690 2227.616193,1108.307530 2233.030344,1106.294720 2229.861573,1097.800518 2198.261672,1109.532082"/>
    <poly id="263086482" type="building.yes" color="255,230,230" fill="1" layer="-1.00" shape="2193.004780,950.040468 2162.542152,947.069522 2155.532488,1018.840990 2168.405501,1020.104186 2164.898523,1056.045525 2182.480895,1057.752979 2193.004780,950.040468"/>
    <poly id="263086645" type="building.yes" color="255,230,230" fill="1" layer="-1.00" shape="2081.397214,1169.536967 2136.738158,1205.338596 2168.092120,1157.078842 2164.433407,1154.713965 2166.411567,1151.669892 2162.571327,1149.175688 2164.959668,1145.489935 2163.380368,1144.472812 2165.965693,1140.504895 2143.727902,1126.115634 2141.142590,1130.083562 2117.130542,1114.547487 2081.397214,1169.536967"/>
    <poly id="263086648" type="building.yes" color="255,230,230" fill="1" layer="-1.00" shape="2062.040093,1139.586376 2079.823151,1112.010437 2052.959516,1094.763885 2035.198177,1122.296185 2062.040093,1139.586376"/>
    <poly id="263086649" type="building.yes" color="255,230,230" fill="1" layer="-1.00" shape="2062.040093,1139.586376 2035.198177,1122.296185 2027.691561,1117.459312 2009.813271,1145.098676 2044.155437,1167.214242 2051.349255,1156.091085 2054.670307,1158.231589 2065.354924,1141.715517 2062.040093,1139.586376"/>
    <poly id="270262207" type="building.yes" color="255,230,230" fill="1" layer="-1.00" shape="2343.187872,1417.999184 2371.025441,1432.989939 2388.630940,1439.176245 2396.704874,1441.295346 2397.537785,1436.671354 2402.227983,1437.794467 2411.221008,1403.986320 2398.384968,1400.529774 2393.672759,1419.452702 2379.306025,1414.045306 2353.075797,1400.028209 2343.187872,1417.999184"/>
    <poly id="270262249" type="building.yes" color="255,230,230" fill="1" layer="-1.00" shape="2428.388180,1436.328582 2507.690531,1456.431066 2531.590750,1362.598130 2492.288445,1352.632086 2480.502894,1398.897722 2440.495056,1388.760756 2428.388180,1436.328582"/>
    <poly id="27958757" type="landuse.industrial" color="209,209,204" fill="1" layer="-3.00" shape="720.532974,1032.140534 850.294599,1016.207273 871.829239,1020.997377 911.192162,1037.856824 953.759924,1053.377254 982.204444,1070.275417 1015.324490,1084.241069 1040.450232,1090.535853 1067.949338,1096.908251 1106.650743,1100.257833 1150.948116,1099.740634 1213.530385,1101.009642 1278.576467,1109.554933 1330.535569,1128.080526 1336.927406,1142.096004 1292.815137,1130.189487 1256.782715,1131.125634 1245.164881,1212.759843 1232.579676,1259.020261 1197.425985,1328.381842 1222.965379,1348.146617 1098.838725,1489.971560 1055.850400,1539.663072 789.375675,1552.517688 787.404430,1477.214229 784.505701,1394.648342 784.886463,1357.476339 785.242172,1273.483771 788.796349,1253.670039 805.684834,1178.813591 808.474663,1158.080417 804.257483,1151.040570 784.739480,1135.021941 754.004138,1109.753727 729.034237,1068.908439 720.532974,1032.140534"/>
    <poly id="28371998" type="landuse.landfill" color="194,194,130" fill="1" layer="-3.00" shape="530.172985,337.660609 444.603685,51.166502 526.575392,40.027628 580.873198,35.811725 739.811753,17.652381 996.777610,8.188439 1053.859024,-3.858887 1095.312441,-12.279192 1155.882455,-24.662846 1583.672319,-129.505468 1731.989488,-162.396501 1783.451838,114.204251 1794.251804,154.858252 1862.285047,284.370881 1892.609918,314.208186 1894.607084,321.666949 1868.429492,360.021375 1851.885795,379.904374 1866.727358,401.331697 1836.977079,429.874203 1802.076136,458.724971 1725.505204,518.378709 1667.663555,565.749311 1584.307952,639.038866 1581.038534,659.152421 1251.329992,546.753916 1208.165439,550.308643 1154.566778,554.999809 1142.023298,567.695225 1110.508156,686.619270 1101.268796,711.209912 975.173347,617.029098 877.306720,551.568615 889.207186,545.742315 882.627586,540.986495 866.795959,537.979427 862.865634,540.906664 776.279332,486.894602 722.999402,455.697165 530.172985,337.660609"/>
    <poly id="289884448" type="building.commercial" color="255,230,230" fill="1" layer="-1.00" shape="945.383381,1422.354685 945.373990,1360.533132 1000.591878,1360.533550 1000.592615,1372.639448 1003.707419,1372.644344 1003.715323,1422.360014 945.383381,1422.354685"/>
    <poly id="292300706" type="building.yes" color="255,230,230" fill="1" layer="-1.00" shape="1046.915645,1311.021709 1086.285342,1310.865758 1086.183317,1286.149021 1046.820062,1286.305225 1046.915645,1311.021709"/>
    <poly id="292300725" type="building.yes" color="255,230,230" fill="1" layer="-1.00" shape="1032.948370,1315.556435 1032.678114,1344.725179 1072.413517,1345.106220 1072.481560,1337.936555 1079.814163,1337.998766 1079.953169,1322.868821 1083.692389,1322.908221 1083.755879,1316.039084 1032.948370,1315.556435"/>
    <poly id="306360884" type="building.yes" color="255,230,230" fill="1" layer="-1.00" shape="1048.072567,1044.512950 1065.827728,1055.321594 1070.159453,1048.233166 1087.042110,1058.519290 1092.004500,1050.407556 1085.671791,1046.551574 1104.231946,1016.194801 1082.272308,1002.823442 1059.473999,1040.082893 1053.141251,1036.226955 1048.072567,1044.512950"/>
    <poly id="306360886" type="building.yes" color="255,230,230" fill="1" layer="-1.00" shape="1157.999036,1061.381010 1159.600997,1058.589788 1153.585750,1055.146502 1151.983792,1057.937725 1157.999036,1061.381010"/>
    <poly id="306360887" type="amenity.parking" color="184,184,179" fill="1" layer="-1.00" shape="1090.289188,1055.165808 1097.807570,1059.533826 1102.187529,1052.046295 1100.253201,1051.261295 1109.027278,1036.264496 1116.013487,1040.445613 1147.433643,988.005791 1130.841659,978.131248 1126.461595,985.440562 1124.540534,984.299666 1088.500971,1045.654891 1093.745614,1048.701796 1090.289188,1055.165808"/>
    <poly id="306360888" type="building.yes" color="255,230,230" fill="1" layer="-1.00" shape="1168.678085,1057.224924 1180.051725,1064.053593 1194.059493,1040.821783 1227.939388,1061.165408 1230.557598,1056.830734 1236.332249,1060.298541 1238.752293,1056.279438 1243.309279,1059.022390 1247.495866,1052.084602 1203.153790,1025.458447 1201.244358,1028.639098 1189.994458,1021.881827 1168.678085,1057.224924"/>
    <poly id="306360889" type="building.yes" color="255,230,230" fill="1" layer="-1.00" shape="1103.681039,1050.197648 1121.509595,1060.819921 1127.409695,1050.950191 1144.574318,1061.169100 1148.841766,1054.022651 1142.375745,1050.172748 1171.640778,1001.260954 1149.872348,988.297349 1117.149758,1042.993866 1110.390390,1038.977136 1103.681039,1050.197648"/>
    <poly id="306360890" type="amenity.parking" color="184,184,179" fill="1" layer="-1.00" shape="1194.948730,1017.021882 1257.186527,1054.963754 1259.944362,1050.456122 1263.348076,1052.532316 1268.218549,1044.573230 1202.576916,1004.555063 1199.911346,1008.910256 1194.948730,1017.021882"/>
    <poly id="306360891" type="amenity.parking" color="184,184,179" fill="1" layer="-1.00" shape="1146.220287,1048.823999 1163.920806,1059.308010 1191.115810,1013.604404 1173.415166,1003.120294 1146.220287,1048.823999"/>
    <poly id="306360893" type="building.yes" color="255,230,230" fill="1" layer="-1.00" shape="1085.425502,998.063192 1106.276310,1010.646980 1123.342769,982.506429 1102.491872,969.922568 1085.425502,998.063192"/>
    <poly id="306360894" type="amenity.parking" color="184,184,179" fill="1" layer="-1.00" shape="1035.990922,1043.093014 1043.369780,1047.455733 1051.737389,1033.356895 1059.123312,1037.708765 1103.918025,962.213363 1089.153471,953.487504 1035.990922,1043.093014"/>
    <poly id="33530113" type="historic.yes" color="128,255,128" fill="0" layer="-1.00" shape="1392.555469,1112.881532 1398.379353,1092.785488 1400.484412,1084.734219 1402.520084,1076.936506 1407.833771,1066.566264 1414.877877,1055.135923 1442.272113,1026.948443"/>
    <poly id="345558330" type="historic.yes" color="128,255,128" fill="0" layer="-1.00" shape="1483.493784,986.270524 1497.351800,972.600602"/>
    <poly id="345742920" type="historic.yes" color="128,255,128" fill="0" layer="-1.00" shape="1392.555469,1112.881532 1384.945875,1111.494332 1375.181244,1112.911024 1368.629152,1116.174121 1363.215307,1121.038976 1359.095914,1127.600524"/>
    <poly id="360268843" type="historic.yes" color="128,255,128" fill="0" layer="-1.00" shape="2888.559632,1183.577839 2883.859298,1215.364323 2862.715447,1258.859462 2840.727461,1342.572700 2815.965188,1357.075044 2823.868776,1415.074941 2736.121980,1423.171197 2747.014253,1473.242523 2780.123590,1522.792759 2769.679694,1639.150278"/>
    <poly id="360268851" type="historic.yes" color="128,255,128" fill="0" layer="-1.00" shape="2888.559632,1183.577839 2820.997115,1180.383768 2763.014624,1184.746401 2708.927609,1207.621749 2671.904255,1231.129422 2598.088577,1289.714657"/>
    <poly id="360988021" type="historic.yes" color="128,255,128" fill="0" layer="-1.00" shape="3014.093271,1591.426934 3014.153987,1559.142384 3154.242100,1536.244839 3217.744386,1511.135499"/>
    <poly id="360988024" type="historic.yes" color="128,255,128" fill="0" layer="-1.00" shape="2769.679694,1639.150278 2854.452719,1638.326667 2877.029342,1665.495566 2876.554174,1688.676464 2903.426413,1698.477584 2932.584772,1704.311184 2957.107453,1697.886107 2968.700915,1683.978939 2971.070887,1652.048857 2962.035152,1619.877611 2975.424317,1597.195264 3014.093271,1591.426934"/>
    <poly id="360988026" type="historic.yes" color="128,255,128" fill="0" layer="-1.00" shape="380.999560,1058.412822 415.131358,1049.692600 443.112200,1035.264425 469.678664,1018.244569 487.664745,1007.676757 517.632879,991.195805 543.223930,983.405916 569.311699,976.937669 594.096943,972.559343 624.977576,970.379377 652.583552,971.051186 669.108414,973.816157 706.167464,977.858533 740.830226,982.791947 789.451073,990.952187 857.655985,1004.086386 883.504709,1009.037422 890.205188,1011.069245 923.743308,1022.766739 959.863941,1040.352053 991.428538,1057.834442 1017.703315,1069.729318 1044.391283,1079.468065 1076.870796,1086.516470 1107.286676,1088.933015 1177.475011,1089.015517 1225.936101,1089.300514 1258.646002,1092.672448 1281.769044,1097.869071 1301.914100,1104.558198 1311.661091,1108.419630 1338.979757,1119.252813 1359.095914,1127.600524"/>
    <poly id="367530692" type="landuse.residential" color="235,235,227" fill="1" layer="-3.00" shape="2667.328085,1245.702634 2654.927387,1217.960492 2620.262562,1234.351651 2615.848998,1234.185411 2612.623439,1231.814212 2607.329105,1222.337543 2606.590482,1216.852511 2604.127980,1212.071017 2625.321054,1202.021641 2607.482762,1163.115859 2609.039647,1158.363238 2619.013448,1152.290468 2631.453865,1145.943101 2603.477904,1086.875894 2542.298393,953.176039 2526.864002,916.677697 2500.133132,856.466472 2457.986254,760.103341 2408.838105,780.795904 2404.636073,785.259753 2402.846691,789.825493 2403.144923,794.993204 2385.853717,804.633537 2386.057014,831.971705 2402.869217,862.139753 2411.174267,877.253415 2409.476205,883.816134 2370.527063,908.066767 2367.593534,914.382564 2379.288630,934.936081 2444.486109,900.580459 2490.177410,987.454452 2500.680254,982.893713 2510.746136,1004.444308 2536.687983,1078.157610 2564.917549,1175.768506 2583.802164,1261.311425 2586.635564,1262.253416 2630.454031,1274.272505 2636.151637,1273.217492 2655.340724,1261.054667 2661.254881,1255.842536 2667.328085,1245.702634"/>
    <poly id="367530698" type="amenity.parking" color="184,184,179" fill="1" layer="-1.00" shape="2386.307757,852.384362 2383.077858,868.879482 2377.882399,887.015794 2375.895426,892.765783 2380.625089,894.447183 2377.365095,903.601802 2409.386488,883.723662 2411.074137,877.260785 2396.845287,852.569107 2386.307757,852.384362"/>
    <poly id="367530706" type="landuse.residential" color="235,235,227" fill="1" layer="-3.00" shape="2901.848445,1070.758037 2931.114489,1167.876056 2954.704032,1178.488958 3024.608159,1209.761182 3029.670210,1212.146316 3059.396065,1225.241149 3063.315443,1227.037451 3085.688892,1183.645212 3092.363586,1169.062478 3097.107820,1157.302528 3098.249234,1152.812779 3094.141731,1150.708642 3034.600913,1120.506018 3026.766852,1115.020326 3022.417264,1110.334416 3020.430895,1104.234194 3018.303599,1094.108115 3018.278121,1081.733697 3018.289090,1065.395804 3018.172586,1062.662786 3017.725319,1051.586640 3014.438001,1038.331767 2901.848445,1070.758037"/>
    <poly id="367533991" type="landuse.residential" color="235,235,227" fill="1" layer="-3.00" shape="3098.082857,1152.283046 3100.137461,1142.648970 3103.862662,1109.578418 3107.613023,1071.964826 3111.364094,1023.581557 3114.727786,989.862536 3116.696319,984.624422 3119.892668,982.127891 3117.380175,975.506579 3116.459269,967.987577 3117.638223,952.105857 3118.313515,940.570912 3123.424453,888.263018 3124.110309,877.329883 3124.509338,870.818534 3120.844780,870.023036 3095.615868,867.355146 3053.308339,863.017971 3040.488028,856.820591 3029.713126,865.390450 2991.106142,878.534166 2963.379406,888.079332 2992.941512,973.303189 3014.752589,1038.109760 3017.980012,1051.540568 3018.792454,1062.641636 3018.580307,1065.440208 3018.619645,1081.679766 3018.550803,1094.084035 3020.666484,1104.165126 3022.578474,1110.295953 3026.924774,1114.892641 3034.842799,1120.270131 3098.082857,1152.283046"/>
    <poly id="367879427" type="landuse.residential" color="235,235,227" fill="1" layer="-3.00" shape="3048.952060,510.739182 3049.565940,515.640455 3051.351055,535.721417 3051.291261,558.116102 3049.577104,592.944296 3049.112595,610.011254 3046.157879,660.596334 3044.130988,671.612491 3038.920931,675.425220 3032.034191,679.742664 3019.216517,684.749512 2991.888637,731.853174 2980.115801,697.885899 2925.603723,716.678025 2907.181296,723.088625 2916.861537,754.303828 2918.452146,759.609453 2961.332814,882.511460 2963.143522,887.803138 2990.999499,878.184887 3029.603966,865.107899 3040.277058,856.589882 3041.141510,856.967769 3053.345425,862.740940 3095.671220,867.123355 3120.920495,869.780877 3124.524806,870.585236 3126.276103,854.179411 3132.903578,779.698884 3138.924271,703.836705 3139.493085,696.708085 3145.259001,625.302322 3151.489357,558.346725 3157.338714,498.660493 3152.979245,498.629484 3097.628358,496.004656 3061.314315,507.051660 3048.952060,510.739182"/>
    <poly id="368702801" type="landuse.grass" color="194,194,130" fill="1" layer="-3.00" shape="2072.948553,863.239206 2033.022007,759.468446 1982.646217,782.246407 1954.662307,795.329307 1931.817871,803.615763 1920.027429,807.372126 1907.568475,811.381867 1881.488574,819.324452 1865.895992,827.727281 1857.273750,830.611410 1849.220332,833.238458 1836.334995,839.036593 1807.381291,849.244006 1799.411041,851.785156 1800.343347,854.971893 1809.319716,853.470799 1850.200208,846.517166 1863.043495,852.845751 1926.564997,833.087853 1939.775943,828.905910 1953.452471,823.315925 1974.087386,822.464190 1972.486597,864.591365 2072.948553,863.239206"/>
    <poly id="368702802" type="leisure.playground" color="207,245,201" fill="1" layer="-2.00" shape="2011.138651,836.851651 2021.374318,850.043480 2030.076447,849.289827 2031.462297,847.838341 2037.741585,834.665002 2022.256243,824.951325 2011.138651,836.851651"/>
    <poly id="3701394" type="historic.yes" color="128,255,128" fill="0" layer="-1.00" shape="1497.351800,972.600602 1552.326422,917.536630 1587.543526,887.047844 1621.902008,859.768014 1634.790844,848.534576 1655.058001,833.501385 1674.457104,821.030685 1694.281423,811.605263 1725.819670,798.152898 1755.433588,785.074094 1779.884294,774.240942 1812.447473,761.874425 1820.767375,758.711585 1827.968290,756.453454 1859.593648,746.557923 1890.439921,735.252379 1907.526279,728.208678 1926.443541,719.563160 1943.448997,709.888199 1956.394614,699.125455 1970.099512,684.983290 1983.378561,671.192704 1992.931861,650.958749 2002.442130,630.099518 2009.383952,618.788617 2019.246969,605.916799 2032.166999,591.945799 2039.555336,586.832774 2056.553560,575.064136 2086.848834,552.590872 2103.573449,541.023721 2125.913943,523.330512 2145.202703,510.144676 2149.193281,507.410045 2151.613031,505.908322"/>
    <poly id="37777705" type="building.yes" color="255,230,230" fill="1" layer="-1.00" shape="3088.310227,1326.802017 3112.675452,1338.525380 3113.715346,1336.370621 3123.214359,1340.939300 3122.174882,1343.082935 3129.085017,1346.406701 3114.129435,1377.393591 3115.012044,1377.816733 3112.167226,1383.701116 3111.291266,1383.278226 3104.005449,1398.361293 3061.315455,1377.838052 3063.438421,1373.441048 3059.247984,1371.422895 3062.158020,1365.396163 3066.348462,1367.414318 3072.674156,1354.310781 3074.589744,1355.229550 3088.310227,1326.802017"/>
    <poly id="37777705#1" type="shop.car" color="237,199,255" fill="1" layer="-1.00" shape="3088.310227,1326.802017 3112.675452,1338.525380 3113.715346,1336.370621 3123.214359,1340.939300 3122.174882,1343.082935 3129.085017,1346.406701 3114.129435,1377.393591 3115.012044,1377.816733 3112.167226,1383.701116 3111.291266,1383.278226 3104.005449,1398.361293 3061.315455,1377.838052 3063.438421,1373.441048 3059.247984,1371.422895 3062.158020,1365.396163 3066.348462,1367.414318 3072.674156,1354.310781 3074.589744,1355.229550 3088.310227,1326.802017"/>
    <poly id="37777706" type="building.yes" color="255,230,230" fill="1" layer="-1.00" shape="3025.700649,1425.018260 3038.872619,1431.908344 3042.641929,1424.276873 3050.564668,1421.758302 3068.091262,1388.596332 3049.620312,1378.899974 3025.700649,1425.018260"/>
    <poly id="37777706#1" type="shop.car" color="237,199,255" fill="1" layer="-1.00" shape="3025.700649,1425.018260 3038.872619,1431.908344 3042.641929,1424.276873 3050.564668,1421.758302 3068.091262,1388.596332 3049.620312,1378.899974 3025.700649,1425.018260"/>
    <poly id="37777707" type="building.yes" color="255,230,230" fill="1" layer="-1.00" shape="2953.566696,1577.080612 2971.503927,1542.530556 3017.504316,1566.307603 2999.567234,1600.846370 2953.566696,1577.080612"/>
    <poly id="37777708" type="building.yes" color="255,230,230" fill="1" layer="-1.00" shape="3013.739424,1485.320290 3052.380240,1503.061863 3029.276155,1553.153486 3017.761381,1547.862911 3023.973478,1534.409783 2996.848140,1521.947810 3013.739424,1485.320290"/>
    <poly id="37777709" type="building.yes" color="255,230,230" fill="1" layer="-1.00" shape="3048.239251,1544.157828 3060.717657,1518.289459 3082.676733,1528.841551 3070.198227,1554.709865 3048.239251,1544.157828"/>
    <poly id="37777710" type="building.yes" color="255,230,230" fill="1" layer="-1.00" shape="3021.453922,1443.356874 3064.198534,1436.862906 3067.972091,1461.551880 3054.315120,1463.631143 3056.750484,1479.515708 3033.239231,1483.093985 3032.539426,1478.534709 3026.962916,1479.382202 3021.453922,1443.356874"/>
    <poly id="42351196" type="landuse.grass" color="194,194,130" fill="1" layer="-3.00" shape="2680.223514,732.909485 2685.166226,735.122657 2695.570018,767.489440 2694.854016,771.828235 2606.482547,802.222889 2604.181768,801.802133 2602.434469,799.765057 2591.670914,768.275935 2590.943245,764.617821 2593.416677,762.929011 2680.223514,732.909485"/>
    <poly id="42352114" type="building.hospital" color="255,230,230" fill="1" layer="-1.00" shape="1621.742265,749.917528 1648.137976,791.121930 1662.111614,782.212277 1635.715962,741.007796 1621.742265,749.917528"/>