<?xml version="1.0" encoding="UTF-8"?>
<osm version="0.6" generator="Overpass API 0.7.55.9 ab41fea6">
<note>The data included in this document is from www.openstreetmap.org. The data is made available under ODbL.</note>
<meta osm_base="2020-02-02T15:55:02Z"/>

  <node id="385708" lat="53.3888025" lon="-6.3537148"/>
  <node id="385709" lat="53.3906091" lon="-6.3489492"/>
  <node id="385710" lat="53.3916584" lon="-6.3461329"/>
  <node id="385711" lat="53.3938144" lon="-6.3402911"/>
  <node id="385804" lat="53.3970286" lon="-6.3315124"/>
  <node id="6300840" lat="53.3976524" lon="-6.3320714">
    <tag k="created_by" v="JOSM"/>
  </node>
  <node id="6300856" lat="53.3981486" lon="-6.3330762"/>
  <node id="6300863" lat="53.3985289" lon="-6.3325571"/>
  <node id="6300875" lat="53.3972851" lon="-6.3315763"/>
  <node id="6300879" lat="53.3967786" lon="-6.3307794"/>
  <node id="6300892" lat="53.3979176" lon="-6.3347913"/>
  <node id="6300910" lat="53.3979541" lon="-6.3365740"/>
  <node id="6300914" lat="53.3979426" lon="-6.3370323"/>
  <node id="6300929" lat="53.3977137" lon="-6.3383320"/>
  <node id="6300939" lat="53.3974215" lon="-6.3393685"/>
  <node id="6300945" lat="53.3973277" lon="-6.3398789">
    <tag k="highway" v="traffic_signals"/>
  </node>
  <node id="6304063" lat="53.3956184" lon="-6.3287845"/>
  <node id="6304069" lat="53.3952668" lon="-6.3279116"/>
  <node id="6304075" lat="53.3942696" lon="-6.3242259"/>
  <node id="6304080" lat="53.3940370" lon="-6.3238396"/>
  <node id="6304084" lat="53.3933105" lon="-6.3231459"/>
  <node id="11675518" lat="53.3965060" lon="-6.3056082"/>
  <node id="11686377" lat="53.4009697" lon="-6.3203032"/>
  <node id="11686378" lat="53.3968485" lon="-6.3313508"/>
  <node id="11686383" lat="53.3891082" lon="-6.3523403">
    <tag k="created_by" v="JOSM"/>
  </node>
  <node id="11686384" lat="53.3898671" lon="-6.3502788"/>
  <node id="11686385" lat="53.3904459" lon="-6.3487400"/>
  <node id="11686386" lat="53.3913896" lon="-6.3461865"/>
  <node id="12114972" lat="53.3885465" lon="-6.3538162">
    <tag k="highway" v="motorway_junction"/>
    <tag k="name" v="N3/Blanchardstown"/>
    <tag k="ref" v="6"/>
  </node>
  <node id="12115549" lat="53.3996731" lon="-6.3335045">
    <tag k="created_by" v="JOSM"/>
  </node>
  <node id="12115554" lat="53.4044905" lon="-6.3404637">
    <tag k="created_by" v="JOSM"/>
  </node>
  <node id="12115574" lat="53.4050486" lon="-6.3415238">
    <tag k="created_by" v="JOSM"/>
  </node>
  <node id="12115811" lat="53.4021637" lon="-6.3170019"/>
  <node id="12115818" lat="53.4009959" lon="-6.3086034"/>
  <node id="12115819" lat="53.4008278" lon="-6.3087912"/>
  <node id="12115820" lat="53.3988259" lon="-6.3069022">
    <tag k="highway" v="crossing"/>
  </node>
  <node id="12115821" lat="53.3986875" lon="-6.3070471">
    <tag k="highway" v="crossing"/>
  </node>
  <node id="12115822" lat="53.3968334" lon="-6.3056392">
    <tag k="created_by" v="JOSM"/>
  </node>
  <node id="12282052" lat="53.4017053" lon="-6.3188924">
    <tag k="highway" v="motorway_junction"/>
    <tag k="name" v="N2 Finglas"/>
    <tag k="ref" v="5"/>
  </node>
  <node id="12867287" lat="53.3978557" lon="-6.3066256"/>
  <node id="12867289" lat="53.3981381" lon="-6.3067966"/>
  <node id="12867290" lat="53.3985359" lon="-6.3071097"/>
  <node id="12867294" lat="53.3977582" lon="-6.3102745"/>
  <node id="12867296" lat="53.3961437" lon="-6.3113608">
    <tag k="direction" v="clockwise"/>
    <tag k="highway" v="mini_roundabout"/>
    <tag k="source" v="Bing"/>
  </node>
  <node id="12867297" lat="53.3958906" lon="-6.3104860">
    <tag k="direction" v="clockwise"/>
    <tag k="highway" v="mini_roundabout"/>
    <tag k="source" v="Bing"/>
  </node>
  <node id="12867298" lat="53.3955234" lon="-6.3088083"/>
  <node id="12867300" lat="53.3952163" lon="-6.3076648"/>
  <node id="12867301" lat="53.3953146" lon="-6.3063918"/>
  <node id="12867427" lat="53.3806464" lon="-6.3232215"/>
  <node id="18896206" lat="53.3932604" lon="-6.3121869">
    <tag k="direction" v="clockwise"/>
    <tag k="highway" v="mini_roundabout"/>
  </node>
  <node id="18896210" lat="53.3943051" lon="-6.3115113"/>
  <node id="18896213" lat="53.3949540" lon="-6.3142789"/>
  <node id="18896218" lat="53.3945228" lon="-6.3145684"/>
  <node id="18896220" lat="53.3941476" lon="-6.3130268"/>
  <node id="18896222" lat="53.3935072" lon="-6.3134142"/>
  <node id="18896229" lat="53.3941673" lon="-6.3167542"/>
  <node id="18896231" lat="53.3945446" lon="-6.3164674"/>
  <node id="18896234" lat="53.3953986" lon="-6.3157747"/>
  <node id="18896236" lat="53.3955765" lon="-6.3166798"/>
  <node id="18896238" lat="53.3947482" lon="-6.3171962"/>
  <node id="18896240" lat="53.3969853" lon="-6.3144721"/>
  <node id="18896244" lat="53.3966516" lon="-6.3130411"/>
  <node id="18896268" lat="53.3938090" lon="-6.3086580"/>
  <node id="18896269" lat="53.3940617" lon="-6.3097440"/>
  <node id="18896273" lat="53.3968557" lon="-6.3079502"/>
  <node id="18896278" lat="53.3999458" lon="-6.3107380"/>
  <node id="18896282" lat="53.3996642" lon="-6.3097296"/>
  <node id="18896285" lat="53.3991690" lon="-6.3085288">
    <tag k="highway" v="turning_circle"/>
  </node>
  <node id="18896289" lat="53.3988375" lon="-6.3103959">
    <tag k="highway" v="turning_circle"/>
  </node>
  <node id="18896290" lat="53.3989894" lon="-6.3114986">
    <tag k="highway" v="turning_circle"/>
  </node>
  <node id="18896296" lat="53.3987855" lon="-6.3092047"/>
  <node id="18896299" lat="53.3986476" lon="-6.3099781"/>
  <node id="18896302" lat="53.3986880" lon="-6.3111213"/>
  <node id="18896303" lat="53.3988897" lon="-6.3121353"/>
  <node id="18896305" lat="53.3990062" lon="-6.3127163"/>
  <node id="18896310" lat="53.4001869" lon="-6.3116148"/>
  <node id="18896452" lat="53.3992286" lon="-6.3074851">
    <tag k="created_by" v="JOSM"/>
  </node>
  <node id="18896457" lat="53.3946029" lon="-6.3127438"/>
  <node id="18896459" lat="53.3973681" lon="-6.3105640"/>
  <node id="18900926" lat="53.3991430" lon="-6.3076413"/>
  <node id="26374831" lat="53.3962725" lon="-6.3120242"/>
  <node id="28851055" lat="53.3994701" lon="-6.3069853">
    <tag k="amenity" v="fuel"/>
    <tag k="brand" v="Topaz"/>
    <tag k="brand:wikidata" v="Q7824764"/>
    <tag k="brand:wikipedia" v="en:Topaz Energy"/>
    <tag k="fixme" v="I bet this isn't Statoil any more"/>
    <tag k="name" v="Topaz"/>
  </node>
  <node id="52258636" lat="53.3988167" lon="-6.3339617">
    <tag k="gns:ADM1" v="07"/>
    <tag k="gns:CC1" v="EI"/>
    <tag k="gns:DMS_LAT" v="532403"/>
    <tag k="gns:DMS_LONG" v="-61945"/>
    <tag k="gns:DSG" v="PPL"/>
    <tag k="gns:FC" v="P"/>
    <tag k="gns:JOG" v="NN29-09"/>
    <tag k="gns:LAT" v="53.400833"/>
    <tag k="gns:LONG" v="-6.329167"/>
    <tag k="gns:MGRS" v="29UPV7755820185"/>
    <tag k="gns:N:xx:FULL_NAME" v="Cappoge"/>
    <tag k="gns:N:xx:FULL_NAME_ND" v="Cappoge"/>
    <tag k="gns:N:xx:MODIFY_DATE" v="1999-02-24"/>
    <tag k="gns:N:xx:NT" v="N"/>
    <tag k="gns:N:xx:SORT_NAME" v="CAPPOGE"/>
    <tag k="gns:RC" v="1"/>
    <tag k="gns:UFI" v="419307"/>
    <tag k="gns:UNI" v="534975"/>
    <tag k="is_in" v="County Dublin"/>
    <tag k="is_in:country" v="Ireland"/>
    <tag k="is_in:county" v="Dublin"/>
    <tag k="name" v="Cappoge"/>
    <tag k="note" v="Experimental import of Irish places and POIs from GNS Dataset"/>
    <tag k="place" v="locality"/>
    <tag k="place_county" v="Dublin"/>
    <tag k="source" v="gns_ei"/>
  </node>
  <node id="59467032" lat="53.3937943" lon="-6.3118417"/>
  <node id="59468071" lat="53.3981308" lon="-6.3120612"/>
  <node id="59468517" lat="53.3959299" lon="-6.3153432"/>
  <node id="59468727" lat="53.3961721" lon="-6.3161146">
    <tag k="highway" v="turning_circle"/>
  </node>
  <node id="59469078" lat="53.3962516" lon="-6.3150906"/>
  <node id="59469768" lat="53.3959643" lon="-6.3138925"/>
  <node id="59469769" lat="53.3956592" lon="-6.3124561"/>
  <node id="113396891" lat="53.4016793" lon="-6.3091651"/>
  <node id="113397001" lat="53.4022570" lon="-6.3087818"/>
  <node id="113397017" lat="53.4020759" lon="-6.3092089"/>
  <node id="248123758" lat="53.4040012" lon="-6.3126444"/>
  <node id="248123787" lat="53.4038293" lon="-6.3124559"/>
  <node id="248123939" lat="53.4031829" lon="-6.3148315"/>
  <node id="248123940" lat="53.4030222" lon="-6.3146541"/>
  <node id="249193366" lat="53.3974323" lon="-6.3060580"/>
  <node id="253221087" lat="53.3990256" lon="-6.3397700"/>
  <node id="253221088" lat="53.4012715" lon="-6.3395985"/>
  <node id="253221089" lat="53.4011480" lon="-6.3377423"/>
  <node id="253221090" lat="53.4001877" lon="-6.3364943"/>
  <node id="253221091" lat="53.4001158" lon="-6.3361084"/>
  <node id="253221092" lat="53.4002967" lon="-6.3356809">
    <tag k="barrier" v="gate"/>
  </node>
  <node id="254019346" lat="53.4020736" lon="-6.3097696">
    <tag k="highway" v="traffic_signals"/>
  </node>
  <node id="257326676" lat="53.4007912" lon="-6.3366916"/>
  <node id="257326677" lat="53.4011060" lon="-6.3359975"/>
  <node id="257326678" lat="53.4007302" lon="-6.3355181"/>
  <node id="257326679" lat="53.4004154" lon="-6.3362122"/>
  <node id="262556230" lat="53.4008695" lon="-6.3169031"/>
  <node id="262556231" lat="53.4004069" lon="-6.3185399"/>
  <node id="262556232" lat="53.3995906" lon="-6.3197754"/>
  <node id="277265847" lat="53.3946271" lon="-6.3254649"/>
  <node id="277265850" lat="53.3944462" lon="-6.3247552"/>
  <node id="277265853" lat="53.3935333" lon="-6.3233847"/>
  <node id="277265860" lat="53.3977473" lon="-6.3321454"/>
  <node id="277265913" lat="53.4054727" lon="-6.3427535"/>
  <node id="277265930" lat="53.4006840" lon="-6.3348242"/>
  <node id="292068057" lat="53.4025070" lon="-6.3097924"/>
  <node id="304840631" lat="53.4191930" lon="-6.3987775"/>
  <node id="304840633" lat="53.4194685" lon="-6.3987495"/>
  <node id="304840644" lat="53.4208597" lon="-6.3964661"/>
  <node id="304840645" lat="53.4209113" lon="-6.3961795"/>
  <node id="304840648" lat="53.4212600" lon="-6.3958966"/>
  <node id="304840656" lat="53.4235949" lon="-6.3954471"/>
  <node id="307148029" lat="53.4098185" lon="-6.3456523"/>
  <node id="307148030" lat="53.4092261" lon="-6.3384361"/>
  <node id="307148032" lat="53.4068018" lon="-6.3398069"/>
  <node id="307156785" lat="53.4015477" lon="-6.3411622"/>
  <node id="307157878" lat="53.3973872" lon="-6.3404756"/>
  <node id="307157880" lat="53.3974230" lon="-6.3401494"/>
  <node id="307157888" lat="53.3975612" lon="-6.3395486"/>
  <node id="307157890" lat="53.3976863" lon="-6.3389004"/>
  <node id="307157891" lat="53.3978285" lon="-6.3384636"/>
  <node id="307157893" lat="53.3979428" lon="-6.3379582"/>
  <node id="307157894" lat="53.3979909" lon="-6.3375772"/>
  <node id="307157896" lat="53.3980389" lon="-6.3371605"/>
  <node id="307157898" lat="53.3980365" lon="-6.3359120"/>
  <node id="307157899" lat="53.3980269" lon="-6.3349711"/>
  <node id="307157902" lat="53.3982307" lon="-6.3331981"/>
  <node id="307157903" lat="53.3983544" lon="-6.3330942"/>
  <node id="307157904" lat="53.3982623" lon="-6.3337636"/>
  <node id="307157906" lat="53.3982828" lon="-6.3343044"/>
  <node id="307157908" lat="53.3990197" lon="-6.3344331"/>
  <node id="307157909" lat="53.3994393" lon="-6.3345962"/>
  <node id="307157911" lat="53.4000739" lon="-6.3350854"/>
  <node id="307157915" lat="53.4002428" lon="-6.3346906"/>
  <node id="307157919" lat="53.4015579" lon="-6.3364759"/>
  <node id="307157923" lat="53.4020185" lon="-6.3370939"/>
  <node id="307157926" lat="53.4022232" lon="-6.3410904"/>
  <node id="307157932" lat="53.3982594" lon="-6.3418698"/>
  <node id="307177222" lat="53.3983900" lon="-6.3132658"/>
  <node id="307179416" lat="53.3986346" lon="-6.3107805"/>
  <node id="307180025" lat="53.3969856" lon="-6.3108071"/>
  <node id="307180143" lat="53.3971133" lon="-6.3113518">
    <tag k="highway" v="turning_circle"/>
  </node>
  <node id="309292713" lat="53.4221831" lon="-6.4149125"/>
  <node id="309292714" lat="53.4216103" lon="-6.4154061"/>
  <node id="309292715" lat="53.4213394" lon="-6.4144838"/>
  <node id="309292716" lat="53.4211845" lon="-6.4142370"/>
  <node id="309292717" lat="53.4204781" lon="-6.4141637"/>
  <node id="309292718" lat="53.4187136" lon="-6.4145323"/>
  <node id="309292719" lat="53.4186636" lon="-6.4063074"/>
  <node id="311615438" lat="53.3914015" lon="-6.3456642"/>
  <node id="311615440" lat="53.3888576" lon="-6.3471096"/>
  <node id="311615441" lat="53.3884580" lon="-6.3426943"/>
  <node id="311615442" lat="53.3882870" lon="-6.3388400"/>
  <node id="311615443" lat="53.3868537" lon="-6.3301024"/>
  <node id="311615445" lat="53.3865085" lon="-6.3278933"/>
  <node id="311615446" lat="53.3893362" lon="-6.3267796"/>
  <node id="311615452" lat="53.3930375" lon="-6.3347144"/>
  <node id="311615454" lat="53.3945645" lon="-6.3368763"/>
  <node id="311615456" lat="53.3931152" lon="-6.3405530"/>
  <node id="311615457" lat="53.3926592" lon="-6.3418839"/>
  <node id="311616261" lat="53.3979231" lon="-6.3475023"/>
  <node id="311619801" lat="53.4010518" lon="-6.3301369"/>
  <node id="311619803" lat="53.4013353" lon="-6.3294546"/>
  <node id="311619805" lat="53.4016444" lon="-6.3289817"/>
  <node id="311619807" lat="53.4025764" lon="-6.3283686"/>
  <node id="311619810" lat="53.4030890" lon="-6.3277790"/>
  <node id="311619814" lat="53.4029839" lon="-6.3274593"/>
  <node id="311619815" lat="53.4029461" lon="-6.3268730"/>
  <node id="311619817" lat="53.4026739" lon="-6.3264894"/>
  <node id="311619820" lat="53.4025863" lon="-6.3259117"/>
  <node id="311619839" lat="53.4042789" lon="-6.3255624"/>
  <node id="311619853" lat="53.4072292" lon="-6.3262268"/>
  <node id="311619855" lat="53.4076420" lon="-6.3265662"/>
  <node id="311619866" lat="53.4097144" lon="-6.3273324"/>
  <node id="311619887" lat="53.4114369" lon="-6.3290348"/>
  <node id="311619890" lat="53.4142938" lon="-6.3270489"/>
  <node id="311619892" lat="53.4131971" lon="-6.3227306"/>
  <node id="311619895" lat="53.4138837" lon="-6.3227295"/>
  <node id="311619898" lat="53.4146409" lon="-6.3227725"/>
  <node id="311619900" lat="53.4147636" lon="-6.3236737"/>
  <node id="311619902" lat="53.4148660" lon="-6.3246607"/>
  <node id="311619906" lat="53.4148301" lon="-6.3262228"/>
  <node id="311619908" lat="53.4148813" lon="-6.3271069"/>
  <node id="311619910" lat="53.4151882" lon="-6.3271498"/>
  <node id="311619914" lat="53.4154184" lon="-6.3269610"/>
  <node id="311619916" lat="53.4156231" lon="-6.3277678"/>
  <node id="311619919" lat="53.4167996" lon="-6.3271327"/>
  <node id="311619922" lat="53.4169633" lon="-6.3269953"/>
  <node id="311619925" lat="53.4169940" lon="-6.3267035"/>
  <node id="311619928" lat="53.4175925" lon="-6.3266778"/>
  <node id="311619931" lat="53.4178125" lon="-6.3268752"/>
  <node id="311619933" lat="53.4182575" lon="-6.3277077"/>
  <node id="311619935" lat="53.4188867" lon="-6.3285403"/>
  <node id="311619939" lat="53.4192550" lon="-6.3301968"/>
  <node id="311619942" lat="53.4189071" lon="-6.3317847"/>
  <node id="311619944" lat="53.4184468" lon="-6.3332266"/>
  <node id="311619946" lat="53.4183752" lon="-6.3342309"/>
  <node id="311619949" lat="53.4169947" lon="-6.3346734"/>
  <node id="311619956" lat="53.4163495" lon="-6.3374323"/>
  <node id="311619959" lat="53.4163648" lon="-6.3379216"/>
  <node id="311619961" lat="53.4156231" lon="-6.3385653"/>
  <node id="311619963" lat="53.4153417" lon="-6.3393549"/>
  <node id="311619964" lat="53.4152785" lon="-6.3405130"/>
  <node id="311619965" lat="53.4132287" lon="-6.3411067"/>
  <node id="311619966" lat="53.4136418" lon="-6.3443738"/>
  <node id="311619968" lat="53.4118030" lon="-6.3448424"/>
  <node id="311619969" lat="53.4115919" lon="-6.3448249"/>
  <node id="311619978" lat="53.4043540" lon="-6.3400435"/>
  <node id="311619979" lat="53.4010096" lon="-6.3350320"/>
  <node id="311619980" lat="53.4020441" lon="-6.3333891"/>
  <node id="311619982" lat="53.4021261" lon="-6.3332038"/>
  <node id="311619984" lat="53.4022182" lon="-6.3330292"/>
  <node id="311619985" lat="53.4016070" lon="-6.3324664"/>
  <node id="311619987" lat="53.4016895" lon="-6.3312704"/>
  <node id="382460260" lat="53.3985200" lon="-6.3321932"/>
  <node id="382460261" lat="53.3981004" lon="-6.3321739"/>
  <node id="382460262" lat="53.3981477" lon="-6.3320814"/>
  <node id="382460263" lat="53.3980734" lon="-6.3322749"/>
  <node id="382460264" lat="53.3981565" lon="-6.3327111"/>
  <node id="382460265" lat="53.3982685" lon="-6.3327932"/>
  <node id="382460272" lat="53.3984844" lon="-6.3326692"/>
  <node id="382460274" lat="53.3985490" lon="-6.3324298"/>
  <node id="382460275" lat="53.3985443" lon="-6.3323008"/>
  <node id="382460277" lat="53.3984824" lon="-6.3321074"/>
  <node id="382460278" lat="53.3982168" lon="-6.3327693"/>
  <node id="382460280" lat="53.3980635" lon="-6.3323900"/>
  <node id="382460281" lat="53.3982184" lon="-6.3320099"/>
  <node id="382460282" lat="53.3988307" lon="-6.3327380"/>
  <node id="382460284" lat="53.3992941" lon="-6.3331357"/>
  <node id="382460285" lat="53.4001730" lon="-6.3341016"/>
  <node id="382460287" lat="53.4005409" lon="-6.3351274"/>
  <node id="382460288" lat="53.3997953" lon="-6.3340086">
    <tag k="highway" v="turning_circle"/>
  </node>
  <node id="382460290" lat="53.3996817" lon="-6.3339391"/>
  <node id="382460291" lat="53.3995190" lon="-6.3337674"/>
  <node id="382460293" lat="53.3993658" lon="-6.3336310"/>
  <node id="382460294" lat="53.3991780" lon="-6.3334855"/>
  <node id="382460295" lat="53.3990876" lon="-6.3334469"/>
  <node id="382460296" lat="53.3989004" lon="-6.3333634"/>
  <node id="382460297" lat="53.3987531" lon="-6.3333066"/>
  <node id="382460298" lat="53.3986654" lon="-6.3332565"/>
  <node id="382460299" lat="53.3985958" lon="-6.3332064"/>
  <node id="382460300" lat="53.3984515" lon="-6.3330527">
    <tag k="highway" v="turning_circle"/>
  </node>
  <node id="382460301" lat="53.3979758" lon="-6.3339477"/>
  <node id="382460302" lat="53.3979369" lon="-6.3342980"/>
  <node id="382460303" lat="53.3979313" lon="-6.3355195"/>
  <node id="382460304" lat="53.3978902" lon="-6.3375242"/>
  <node id="382460305" lat="53.3978117" lon="-6.3379306"/>
  <node id="382460306" lat="53.3975673" lon="-6.3388160"/>
  <node id="382460309" lat="53.3973117" lon="-6.3399807"/>
  <node id="382460310" lat="53.3972759" lon="-6.3403718"/>
  <node id="382460311" lat="53.3971808" lon="-6.3414038"/>
  <node id="382460312" lat="53.3971238" lon="-6.3421388"/>
  <node id="382460318" lat="53.3960816" lon="-6.3400422"/>
  <node id="382460319" lat="53.3960518" lon="-6.3397383"/>
  <node id="382460320" lat="53.3960321" lon="-6.3394344"/>
  <node id="382460321" lat="53.3960368" lon="-6.3390260"/>
  <node id="382460323" lat="53.3960815" lon="-6.3386985"/>
  <node id="382460324" lat="53.3961334" lon="-6.3384794"/>
  <node id="382460326" lat="53.3962658" lon="-6.3380764"/>
  <node id="382460327" lat="53.3980560" lon="-6.3365772"/>
  <node id="382460329" lat="53.3980818" lon="-6.3339891"/>
  <node id="443139621" lat="53.3994219" lon="-6.3066783"/>
  <node id="443139622" lat="53.3995841" lon="-6.3060546"/>
  <node id="443139623" lat="53.4000591" lon="-6.3064019"/>
  <node id="443139624" lat="53.3998893" lon="-6.3070549"/>
  <node id="443139625" lat="53.4003250" lon="-6.3075632"/>
  <node id="443139626" lat="53.4002873" lon="-6.3071915"/>
  <node id="443139627" lat="53.3999836" lon="-6.3069470"/>
  <node id="443139628" lat="53.3999028" lon="-6.3072300"/>
  <node id="443139629" lat="53.4017148" lon="-6.3085607"/>
  <node id="443139630" lat="53.4013985" lon="-6.3083108"/>
  <node id="443139631" lat="53.4015964" lon="-6.3076062"/>
  <node id="443139632" lat="53.4019126" lon="-6.3078561"/>
  <node id="443139633" lat="53.4008705" lon="-6.3077087"/>
  <node id="443139634" lat="53.4010167" lon="-6.3071181"/>
  <node id="443139635" lat="53.4014743" lon="-6.3074368"/>
  <node id="443139636" lat="53.4014307" lon="-6.3076128"/>
  <node id="443139637" lat="53.4013078" lon="-6.3075271"/>
  <node id="443139638" lat="53.4012051" lon="-6.3079417"/>
  <node id="443139639" lat="53.4013871" lon="-6.3071570"/>
  <node id="443139640" lat="53.4011506" lon="-6.3069842"/>
  <node id="443139641" lat="53.4012379" lon="-6.3066483"/>
  <node id="443139643" lat="53.4014744" lon="-6.3068211"/>
  <node id="443139644" lat="53.4004911" lon="-6.3076166"/>
  <node id="443139646" lat="53.4004183" lon="-6.3069781"/>
  <node id="443139648" lat="53.4006387" lon="-6.3069074"/>
  <node id="443139649" lat="53.4006620" lon="-6.3071114"/>
  <node id="443139650" lat="53.4008038" lon="-6.3070658"/>
  <node id="443139651" lat="53.4008127" lon="-6.3075134"/>
  <node id="446897184" lat="53.3902034" lon="-6.3500074"/>
  <node id="472383917" lat="53.3970911" lon="-6.3426623"/>
  <node id="472383919" lat="53.3970511" lon="-6.3438862"/>
  <node id="472383920" lat="53.3971286" lon="-6.3447188"/>
  <node id="472383921" lat="53.3971954" lon="-6.3451071"/>
  <node id="472383922" lat="53.3972739" lon="-6.3454872"/>
  <node id="472383924" lat="53.3974319" lon="-6.3459282"/>
  <node id="472383925" lat="53.3975328" lon="-6.3461925"/>
  <node id="472383926" lat="53.3976945" lon="-6.3465821"/>
  <node id="472383927" lat="53.3978334" lon="-6.3469944"/>
  <node id="472489109" lat="53.4022826" lon="-6.3095152"/>
  <node id="472489110" lat="53.4022402" lon="-6.3093940"/>
  <node id="472489111" lat="53.4018823" lon="-6.3092961"/>
  <node id="472489112" lat="53.4019354" lon="-6.3093159"/>
  <node id="472489113" lat="53.4020003" lon="-6.3092838"/>
  <node id="472489114" lat="53.4021227" lon="-6.3091329"/>
  <node id="472489115" lat="53.4023601" lon="-6.3096375"/>
  <node id="472489116" lat="53.4022230" lon="-6.3092961"/>
  <node id="472489117" lat="53.4022289" lon="-6.3091650"/>
  <node id="472489118" lat="53.4022834" lon="-6.3089300"/>
  <node id="472489119" lat="53.4026580" lon="-6.3076981"/>
  <node id="472489120" lat="53.4028427" lon="-6.3070122"/>
  <node id="472489121" lat="53.4029115" lon="-6.3067493"/>
  <node id="472489122" lat="53.4029562" lon="-6.3065294"/>
  <node id="472489123" lat="53.4029882" lon="-6.3062612"/>
  <node id="528733618" lat="53.3923822" lon="-6.3212495"/>
  <node id="528733741" lat="53.3937238" lon="-6.3235158"/>
  <node id="528733746" lat="53.3945470" lon="-6.3150270"/>
  <node id="528733748" lat="53.3946892" lon="-6.3150103"/>
  <node id="528733751" lat="53.3947241" lon="-6.3147276"/>
  <node id="528733755" lat="53.3947174" lon="-6.3144441"/>
  <node id="528743414" lat="53.3934738" lon="-6.3288594"/>
  <node id="528743424" lat="53.3937704" lon="-6.3292979"/>
  <node id="528743426" lat="53.3947373" lon="-6.3290360"/>
  <node id="528743427" lat="53.3946526" lon="-6.3288311"/>
  <node id="528743428" lat="53.3944700" lon="-6.3283098"/>
  <node id="528743429" lat="53.3940936" lon="-6.3289980"/>
  <node id="528743430" lat="53.3939113" lon="-6.3288618"/>
  <node id="528743431" lat="53.3944238" lon="-6.3282523"/>
  <node id="528743436" lat="53.3950984" lon="-6.3286163"/>
  <node id="528743437" lat="53.3950137" lon="-6.3284114"/>
  <node id="528743438" lat="53.3954766" lon="-6.3284885"/>
  <node id="528743453" lat="53.3933493" lon="-6.3261674"/>
  <node id="528743459" lat="53.3920498" lon="-6.3240421"/>
  <node id="528743460" lat="53.3934294" lon="-6.3232868">
    <tag k="highway" v="traffic_signals"/>
    <tag k="traffic_signals" v="signal"/>
  </node>
  <node id="528743464" lat="53.3923766" lon="-6.3249131"/>
  <node id="528743465" lat="53.3931807" lon="-6.3229597"/>
  <node id="528743468" lat="53.3925330" lon="-6.3215902"/>
  <node id="528743471" lat="53.3942644" lon="-6.3279533"/>
  <node id="528743472" lat="53.3942681" lon="-6.3275896"/>
  <node id="528743475" lat="53.3937198" lon="-6.3268408"/>
  <node id="528743477" lat="53.3936632" lon="-6.3270881"/>
  <node id="528743478" lat="53.3937267" lon="-6.3272624"/>
  <node id="528743481" lat="53.3939639" lon="-6.3273565"/>
  <node id="528743482" lat="53.3940209" lon="-6.3269262"/>
  <node id="528743483" lat="53.3941622" lon="-6.3270916"/>
  <node id="528743484" lat="53.3939768" lon="-6.3272589"/>
  <node id="528743485" lat="53.3944661" lon="-6.3275373"/>
  <node id="528743487" lat="53.3945470" lon="-6.3275148"/>
  <node id="528743488" lat="53.3947033" lon="-6.3277827"/>
  <node id="528743489" lat="53.3943019" lon="-6.3280136"/>
  <node id="528743491" lat="53.3937073" lon="-6.3256884"/>
  <node id="528743492" lat="53.3940399" lon="-6.3257309"/>
  <node id="528743493" lat="53.3934351" lon="-6.3262691"/>
  <node id="528743495" lat="53.3937121" lon="-6.3266303"/>
  <node id="528743496" lat="53.3939100" lon="-6.3266500"/>
  <node id="528743503" lat="53.3943440" lon="-6.3260762"/>
  <node id="528743504" lat="53.3946260" lon="-6.3264906"/>
  <node id="528743509" lat="53.3950473" lon="-6.3276806"/>
  <node id="616511679" lat="53.3970810" lon="-6.3443489"/>
  <node id="616511680" lat="53.3970672" lon="-6.3432213"/>
  <node id="630955549" lat="53.3986751" lon="-6.3410244"/>
  <node id="630955615" lat="53.3998576" lon="-6.3397124"/>
  <node id="630955616" lat="53.4003454" lon="-6.3396754"/>
  <node id="630955646" lat="53.4012964" lon="-6.3393016"/>
  <node id="630955649" lat="53.4015337" lon="-6.3376158"/>
  <node id="630955650" lat="53.4015049" lon="-6.3367824"/>
  <node id="630955651" lat="53.4012846" lon="-6.3372630"/>
  <node id="630955652" lat="53.4012126" lon="-6.3372067"/>
  <node id="630955653" lat="53.4017034" lon="-6.3370384"/>
  <node id="630955654" lat="53.4014815" lon="-6.3375226"/>
  <node id="630955655" lat="53.4011780" lon="-6.3372823"/>
  <node id="630955656" lat="53.4014976" lon="-6.3376945"/>
  <node id="638781364" lat="53.4013859" lon="-6.3191259"/>
  <node id="638781367" lat="53.4025312" lon="-6.3154944"/>
  <node id="638781368" lat="53.4023896" lon="-6.3159945"/>
  <node id="638781369" lat="53.4020413" lon="-6.3170053"/>
  <node id="645356347" lat="53.4111468" lon="-6.3283904"/>
  <node id="645356351" lat="53.4108456" lon="-6.3267958"/>
  <node id="695800449" lat="53.3931440" lon="-6.3361633"/>
  <node id="695800594" lat="53.3953598" lon="-6.3326036"/>
  <node id="695800605" lat="53.3960186" lon="-6.3302080"/>
  <node id="695800608" lat="53.3965123" lon="-6.3309678"/>
  <node id="695800610" lat="53.3987859" lon="-6.3331535"/>
  <node id="695800612" lat="53.3990246" lon="-6.3332194"/>
  <node id="695800614" lat="53.3999646" lon="-6.3341623"/>
  <node id="695800616" lat="53.3995566" lon="-6.3336199"/>
  <node id="695800618" lat="53.3992211" lon="-6.3333208"/>
  <node id="827307962" lat="53.3948605" lon="-6.3374586"/>
  <node id="827307965" lat="53.3982167" lon="-6.3282733"/>
  <node id="827307968" lat="53.4011288" lon="-6.3204559"/>
  <node id="827308043" lat="53.4023098" lon="-6.3172080"/>
  <node id="827308123" lat="53.3980527" lon="-6.3280977"/>
  <node id="827308129" lat="53.3946909" lon="-6.3372548"/>
  <node id="827308132" lat="53.3936317" lon="-6.3400928"/>
  <node id="844289369" lat="53.3960392" lon="-6.3195460"/>
  <node id="844297018" lat="53.3996112" lon="-6.2973995"/>
  <node id="844297024" lat="53.3994727" lon="-6.3185938"/>
  <node id="848997275" lat="53.3992549" lon="-6.3140641"/>
  <node id="848997287" lat="53.4013058" lon="-6.3117973"/>
  <node id="848997291" lat="53.4009539" lon="-6.3122036"/>
  <node id="848997321" lat="53.4013802" lon="-6.3056596"/>
  <node id="848997324" lat="53.4015834" lon="-6.3074654"/>
  <node id="848997332" lat="53.3989726" lon="-6.2951790"/>
  <node id="848997335" lat="53.4026340" lon="-6.3075633"/>
  <node id="849007447" lat="53.3942995" lon="-6.3190833"/>
  <node id="849007461" lat="53.3975387" lon="-6.3197763"/>
  <node id="849007464" lat="53.3974983" lon="-6.3192182"/>
  <node id="849007484" lat="53.3983892" lon="-6.3188059"/>
  <node id="877556401" lat="53.3989798" lon="-6.3149122"/>
  <node id="877556403" lat="53.3971568" lon="-6.3166245"/>
  <node id="877556404" lat="53.3945852" lon="-6.3095805"/>
  <node id="877556406" lat="53.4012115" lon="-6.3106336"/>
  <node id="877556415" lat="53.3961432" lon="-6.3176414"/>
  <node id="877556417" lat="53.4009318" lon="-6.3122027"/>
  <node id="877556418" lat="53.4002798" lon="-6.3100782"/>
  <node id="877556419" lat="53.3978684" lon="-6.3160305"/>
  <node id="877556420" lat="53.3961054" lon="-6.3112585"/>
  <node id="877556421" lat="53.3948862" lon="-6.3097416"/>
  <node id="877556430" lat="53.3966235" lon="-6.3164587"/>
  <node id="877556432" lat="53.3961345" lon="-6.3077120"/>
  <node id="877556435" lat="53.3976404" lon="-6.3184701"/>
  <node id="877556437" lat="53.3974314" lon="-6.3176464"/>
  <node id="877556438" lat="53.3955897" lon="-6.3124125"/>
  <node id="877556439" lat="53.3959120" lon="-6.3097438"/>
  <node id="877556449" lat="53.4002703" lon="-6.3133581"/>
  <node id="877556450" lat="53.3999526" lon="-6.3163053"/>
  <node id="877556452" lat="53.3984095" lon="-6.3156031"/>
  <node id="877556455" lat="53.3957439" lon="-6.3102521"/>
  <node id="877556457" lat="53.4017496" lon="-6.3102474"/>
  <node id="877556458" lat="53.3947677" lon="-6.3101387"/>
  <node id="877556461" lat="53.4010541" lon="-6.3133677"/>
  <node id="877556462" lat="53.3973560" lon="-6.3078601"/>
  <node id="877556463" lat="53.4028126" lon="-6.3108459"/>
  <node id="877556464" lat="53.3995366" lon="-6.3078624"/>
  <node id="877556466" lat="53.3982483" lon="-6.3179359"/>
  <node id="877556470" lat="53.3977734" lon="-6.3163339"/>
  <node id="877556471" lat="53.3990148" lon="-6.3142478"/>
  <node id="877556472" lat="53.4026292" lon="-6.3141047"/>
  <node id="877556479" lat="53.3999136" lon="-6.3136711"/>
  <node id="877556481" lat="53.3979371" lon="-6.3173540"/>
  <node id="877556482" lat="53.3960016" lon="-6.3096846"/>
  <node id="877556484" lat="53.3974324" lon="-6.3140933"/>
  <node id="877556489" lat="53.3977847" lon="-6.3189706"/>
  <node id="877556490" lat="53.3973642" lon="-6.3105617"/>