<?xml version="1.0" encoding="UTF-8"?>

<net version="1.3" junctionCornerDetail="5" lefthand="true" limitTurnSpeed="5.50" xmlns:xsi="http://www.w3.org/2001/XMLSchema-instance" xsi:noNamespaceSchemaLocation="http://sumo.dlr.de/xsd/net_file.xsd">

    <location netOffset="-675969.99,-5918757.34" convBoundary="0.00,-0.00,3172.16,1909.79" origBoundary="-6.353816,53.388546,-6.305592,53.405473" projParameter="+proj=utm +zone=29 +ellps=WGS84 +datum=WGS84 +units=m +no_defs"/>

    <type id="highway.bridleway" priority="1" numLanes="1" speed="2.78" allow="pedestrian" oneway="1" width="2.00"/>
    <type id="highway.bus_guideway" priority="1" numLanes="1" speed="27.78" allow="bus" oneway="1"/>
    <type id="highway.cycleway" priority="1" numLanes="1" speed="8.33" allow="bicycle" oneway="0" width="1.00"/>
    <type id="highway.footway" priority="1" numLanes="1" speed="2.78" allow="pedestrian" oneway="1" width="2.00"/>
    <type id="highway.ford" priority="1" numLanes="1" speed="2.78" allow="army" oneway="0"/>
    <type id="highway.living_street" priority="2" numLanes="1" speed="2.78" disallow="tram rail_urban rail rail_electric rail_fast ship" oneway="0"/>
    <type id="highway.motorway" priority="14" numLanes="2" speed="39.44" allow="private emergency authority army vip passenger hov taxi bus coach delivery truck trailer motorcycle evehicle custom1 custom2" oneway="1"/>
    <type id="highway.motorway_link" priority="9" numLanes="1" speed="22.22" allow="private emergency authority army vip passenger hov taxi bus coach delivery truck trailer motorcycle evehicle custom1 custom2" oneway="1"/>
    <type id="highway.path" priority="1" numLanes="1" speed="2.78" allow="pedestrian bicycle" oneway="1" width="2.00"/>
    <type id="highway.pedestrian" priority="1" numLanes="1" speed="2.78" allow="pedestrian" oneway="1" width="2.00"/>
    <type id="highway.primary" priority="12" numLanes="2" speed="27.78" disallow="tram rail_urban rail rail_electric rail_fast ship" oneway="0"/>
    <type id="highway.primary_link" priority="7" numLanes="1" speed="22.22" disallow="tram rail_urban rail rail_electric rail_fast ship" oneway="0"/>
    <type id="highway.raceway" priority="15" numLanes="2" speed="83.33" allow="vip" oneway="0"/>
    <type id="highway.residential" priority="3" numLanes="1" speed="13.89" disallow="tram rail_urban rail rail_electric rail_fast ship" oneway="0"/>
    <type id="highway.secondary" priority="11" numLanes="1" speed="27.78" disallow="tram rail_urban rail rail_electric rail_fast ship" oneway="0"/>
    <type id="highway.secondary_link" priority="6" numLanes="1" speed="22.22" disallow="tram rail_urban rail rail_electric rail_fast ship" oneway="0"/>
    <type id="highway.service" priority="1" numLanes="1" speed="5.56" allow="pedestrian delivery bicycle" oneway="0"/>
    <type id="highway.stairs" priority="1" numLanes="1" speed="1.39" allow="pedestrian" oneway="1" width="2.00"/>
    <type id="highway.step" priority="1" numLanes="1" speed="1.39" allow="pedestrian" oneway="1" width="2.00"/>
    <type id="highway.steps" priority="1" numLanes="1" speed="1.39" allow="pedestrian" oneway="1" width="2.00"/>
    <type id="highway.tertiary" priority="10" numLanes="1" speed="22.22" disallow="tram rail_urban rail rail_electric rail_fast ship" oneway="0"/>
    <type id="highway.tertiary_link" priority="5" numLanes="1" speed="22.22" disallow="tram rail_urban rail rail_electric rail_fast ship" oneway="0"/>
    <type id="highway.track" priority="1" numLanes="1" speed="5.56" disallow="tram rail_urban rail rail_electric rail_fast ship" oneway="0"/>
    <type id="highway.trunk" priority="13" numLanes="2" speed="27.78" disallow="pedestrian bicycle tram rail_urban rail rail_electric rail_fast ship" oneway="0"/>
    <type id="highway.trunk_link" priority="8" numLanes="1" speed="22.22" disallow="pedestrian bicycle tram rail_urban rail rail_electric rail_fast ship" oneway="0"/>
    <type id="highway.unclassified" priority="4" numLanes="1" speed="13.89" disallow="tram rail_urban rail rail_electric rail_fast ship" oneway="0"/>
    <type id="highway.unsurfaced" priority="1" numLanes="1" speed="8.33" disallow="tram rail_urban rail rail_electric rail_fast ship" oneway="0"/>
    <type id="railway.highspeed" priority="21" numLanes="1" speed="69.44" allow="rail_fast" oneway="1"/>
    <type id="railway.light_rail" priority="19" numLanes="1" speed="27.78" allow="rail_urban" oneway="1"/>
    <type id="railway.preserved" priority="16" numLanes="1" speed="27.78" allow="rail" oneway="1"/>
    <type id="railway.rail" priority="20" numLanes="1" speed="44.44" allow="rail" oneway="1"/>
    <type id="railway.subway" priority="18" numLanes="1" speed="27.78" allow="rail_urban" oneway="1"/>
    <type id="railway.tram" priority="17" numLanes="1" speed="13.89" allow="tram" oneway="1"/>

    <edge id=":100636942#1-AddedOnRampNode_0" function="internal">
        <lane id=":100636942#1-AddedOnRampNode_0_0" index="0" disallow="tram rail_urban rail rail_electric rail_fast ship" speed="22.22" length="8.00" shape="3010.59,1685.95 3017.75,1689.51"/>
    </edge>
    <edge id=":113396891_0" function="internal">
        <lane id=":113396891_0_0" index="0" disallow="tram rail_urban rail rail_electric rail_fast ship" speed="12.22" length="12.71" shape="2904.25,1606.77 2903.41,1603.57 2902.99,1600.86 2903.34,1598.04 2904.83,1594.53"/>
    </edge>
    <edge id=":113396891_1" function="internal">
        <lane id=":113396891_1_0" index="0" disallow="tram rail_urban rail rail_electric rail_fast ship" speed="16.67" length="12.86" shape="2898.23,1605.19 2899.62,1601.68 2900.07,1599.08 2900.55,1596.48 2902.01,1593.01"/>
        <lane id=":113396891_1_1" index="1" disallow="tram rail_urban rail rail_electric rail_fast ship" speed="16.67" length="12.86" shape="2895.38,1603.74 2896.78,1600.21 2897.24,1597.59 2897.73,1594.99 2899.20,1591.49"/>
    </edge>
    <edge id=":12115819_0" function="internal">
        <lane id=":12115819_0_0" index="0" disallow="tram rail_urban rail rail_electric rail_fast ship" speed="16.67" length="8.19" shape="2942.45,1473.58 2941.09,1475.58 2939.85,1476.74 2938.62,1477.92 2937.30,1479.94"/>
        <lane id=":12115819_0_1" index="1" disallow="tram rail_urban rail rail_electric rail_fast ship" speed="16.67" length="8.19" shape="2945.27,1475.09 2943.92,1477.08 2942.68,1478.23 2941.46,1479.39 2940.15,1481.40"/>
        <lane id=":12115819_0_2" index="2" disallow="tram rail_urban rail rail_electric rail_fast ship" speed="16.67" length="8.19" shape="2945.27,1475.09 2944.37,1477.30 2944.11,1478.96 2943.86,1480.63 2942.99,1482.87"/>
    </edge>
    <edge id=":12115820_0" function="internal">
        <lane id=":12115820_0_0" index="0" disallow="tram rail_urban rail rail_electric rail_fast ship" speed="16.67" length="5.08" shape="3077.63,1263.67 3079.95,1259.20"/>
        <lane id=":12115820_0_1" index="1" disallow="tram rail_urban rail rail_electric rail_fast ship" speed="16.67" length="5.08" shape="3074.78,1262.22 3077.12,1257.71"/>
        <lane id=":12115820_0_2" index="2" disallow="tram rail_urban rail rail_electric rail_fast ship" speed="16.67" length="5.08" shape="3071.93,1260.76 3074.28,1256.22"/>
    </edge>
    <edge id=":12115821_0" function="internal">
        <lane id=":12115821_0_0" index="0" disallow="tram rail_urban rail rail_electric rail_fast ship" speed="16.67" length="5.20" shape="3066.66,1241.16 3064.25,1245.74"/>
        <lane id=":12115821_0_1" index="1" disallow="tram rail_urban rail rail_electric rail_fast ship" speed="16.67" length="5.20" shape="3069.50,1242.63 3067.08,1247.25"/>
    </edge>
    <edge id=":12282052_0" function="internal">
        <lane id=":12282052_0_0" index="0" allow="private emergency authority army vip passenger hov taxi bus coach delivery truck trailer motorcycle evehicle custom1 custom2" speed="25.00" length="7.86" shape="2259.20,1554.61 2265.63,1559.05"/>
        <lane id=":12282052_0_1" index="1" allow="private emergency authority army vip passenger hov taxi bus coach delivery truck trailer motorcycle evehicle custom1 custom2" speed="25.00" length="7.86" shape="2260.98,1551.95 2267.48,1556.45"/>
    </edge>
    <edge id=":12282052_2" function="internal">
        <lane id=":12282052_2_0" index="0" allow="private emergency authority army vip passenger hov taxi bus coach delivery truck trailer motorcycle evehicle custom1 custom2" speed="27.78" length="8.25" shape="2262.76,1549.29 2264.60,1550.83 2265.62,1552.17 2266.65,1553.50 2268.51,1555.01"/>
        <lane id=":12282052_2_1" index="1" allow="private emergency authority army vip passenger hov taxi bus coach delivery truck trailer motorcycle evehicle custom1 custom2" speed="27.78" length="8.25" shape="2264.54,1546.64 2266.40,1548.18 2267.44,1549.53 2268.48,1550.88 2270.36,1552.40"/>
        <lane id=":12282052_2_2" index="2" allow="private emergency authority army vip passenger hov taxi bus coach delivery truck trailer motorcycle evehicle custom1 custom2" speed="27.78" length="8.25" shape="2266.32,1543.98 2268.21,1545.54 2269.26,1546.90 2270.32,1548.25 2272.22,1549.79"/>
    </edge>
    <edge id=":1261484523_0" function="internal">
        <lane id=":1261484523_0_0" index="0" disallow="tram rail_urban rail rail_electric rail_fast ship" speed="13.89" length="10.43" shape="1554.03,913.94 1546.47,921.13"/>
    </edge>
    <edge id=":1261484523_1" function="internal">
        <lane id=":1261484523_1_0" index="0" allow="pedestrian delivery bicycle" speed="8.43" length="4.72" shape="1554.03,913.94 1552.63,915.75 1551.98,918.09"/>
    </edge>
    <edge id=":1261484523_2" function="internal">
        <lane id=":1261484523_2_0" index="0" disallow="tram rail_urban rail rail_electric rail_fast ship" speed="3.65" length="2.34" shape="1554.03,913.94 1553.65,915.33 1553.87,916.20"/>
    </edge>
    <edge id=":1261484523_9" function="internal">
        <lane id=":1261484523_9_0" index="0" allow="pedestrian delivery bicycle" speed="8.43" length="6.40" shape="1551.98,918.09 1552.07,920.97 1552.92,924.38"/>
    </edge>
    <edge id=":1261484523_10" function="internal">
        <lane id=":1261484523_10_0" index="0" disallow="tram rail_urban rail rail_electric rail_fast ship" speed="3.65" length="2.34" shape="1553.87,916.20 1554.70,916.54 1556.13,916.36"/>
    </edge>
    <edge id=":1261484523_3" function="internal">
        <lane id=":1261484523_3_0" index="0" disallow="tram rail_urban rail rail_electric rail_fast ship" speed="6.97" length="7.36" shape="1555.96,923.37 1555.30,920.93 1555.11,918.95 1555.39,917.43 1556.13,916.36"/>
    </edge>
    <edge id=":1261484523_4" function="internal">
        <lane id=":1261484523_4_0" index="0" disallow="tram rail_urban rail rail_electric rail_fast ship" speed="6.67" length="12.93" shape="1555.96,923.37 1554.27,919.93 1552.12,918.41 1549.52,918.81 1546.47,921.13"/>
    </edge>
    <edge id=":1261484523_5" function="internal">
        <lane id=":1261484523_5_0" index="0" allow="pedestrian delivery bicycle" speed="3.65" length="4.67" shape="1555.96,923.37 1554.82,922.49 1553.94,922.36 1553.30,922.99 1552.92,924.38"/>
    </edge>
    <edge id=":1261484523_6" function="internal">
        <lane id=":1261484523_6_0" index="0" allow="pedestrian delivery bicycle" speed="4.70" length="5.70" shape="1548.74,923.39 1550.08,922.37 1551.23,922.19 1552.18,922.86 1552.92,924.38"/>
    </edge>
    <edge id=":1261484523_7" function="internal">
        <lane id=":1261484523_7_0" index="0" disallow="tram rail_urban rail rail_electric rail_fast ship" speed="13.89" length="10.20" shape="1548.74,923.39 1556.13,916.36"/>
    </edge>
    <edge id=":1261484523_8" function="internal">
        <lane id=":1261484523_8_0" index="0" disallow="tram rail_urban rail rail_electric rail_fast ship" speed="3.65" length="2.34" shape="1548.74,923.39 1549.02,921.98 1548.74,921.13"/>
    </edge>
    <edge id=":1261484523_11" function="internal">
        <lane id=":1261484523_11_0" index="0" disallow="tram rail_urban rail rail_electric rail_fast ship" speed="3.65" length="2.34" shape="1548.74,921.13 1547.89,920.85 1546.47,921.13"/>
    </edge>
    <edge id=":1261484528_0" function="internal">
        <lane id=":1261484528_0_0" index="0" disallow="tram rail_urban rail rail_electric rail_fast ship" speed="3.65" length="4.67" shape="1421.45,820.14 1420.19,819.43 1419.29,819.44 1418.76,820.16 1418.60,821.60"/>
    </edge>
    <edge id=":1261484529_0" function="internal">
        <lane id=":1261484529_0_0" index="0" allow="pedestrian delivery bicycle" speed="9.72" length="16.87" shape="1652.72,1030.36 1648.75,1031.04 1644.53,1032.29 1640.31,1033.59 1636.36,1034.40"/>
    </edge>
    <edge id=":1261484529_1" function="internal">
        <lane id=":1261484529_1_0" index="0" allow="pedestrian delivery bicycle" speed="4.81" length="9.64" shape="1652.72,1030.36 1653.95,1039.92"/>
    </edge>
    <edge id=":1261484529_2" function="internal">
        <lane id=":1261484529_2_0" index="0" allow="pedestrian delivery bicycle" speed="3.75" length="5.07" shape="1652.72,1030.36 1651.93,1031.71 1651.93,1032.69 1652.70,1033.27 1654.25,1033.48"/>
    </edge>
    <edge id=":1261484529_3" function="internal">
        <lane id=":1261484529_3_0" index="0" allow="pedestrian delivery bicycle" speed="9.72" length="62.36" shape="1654.66,1036.72 1631.23,1036.63 1623.35,1036.06 1631.02,1035.01 1654.25,1033.48"/>
    </edge>
    <edge id=":1261484529_4" function="internal">
        <lane id=":1261484529_4_0" index="0" allow="pedestrian delivery bicycle" speed="13.89" length="18.48" shape="1654.66,1036.72 1650.40,1036.29 1645.50,1035.37 1640.62,1034.55 1636.36,1034.40"/>
    </edge>
    <edge id=":1261484529_5" function="internal">
        <lane id=":1261484529_5_0" index="0" allow="pedestrian delivery bicycle" speed="3.68" length="2.63" shape="1654.66,1036.72 1653.29,1037.25 1652.71,1037.96 1652.76,1038.19"/>
    </edge>
    <edge id=":1261484529_9" function="internal">
        <lane id=":1261484529_9_0" index="0" allow="pedestrian delivery bicycle" speed="3.68" length="2.16" shape="1652.76,1038.19 1652.93,1038.85 1653.95,1039.92"/>
    </edge>
    <edge id=":1261484529_6" function="internal">
        <lane id=":1261484529_6_0" index="0" allow="pedestrian delivery bicycle" speed="13.89" length="17.45" shape="1636.70,1037.58 1640.79,1037.73 1645.31,1038.57 1649.84,1039.49 1653.95,1039.92"/>
    </edge>
    <edge id=":1261484529_7" function="internal">
        <lane id=":1261484529_7_0" index="0" allow="pedestrian delivery bicycle" speed="9.72" length="5.49" shape="1636.70,1037.58 1640.83,1036.76 1642.06,1036.41"/>
    </edge>
    <edge id=":1261484529_8" function="internal">
        <lane id=":1261484529_8_0" index="0" allow="pedestrian delivery bicycle" speed="3.65" length="2.09" shape="1636.70,1037.58 1637.81,1036.66 1638.03,1036.06"/>
    </edge>
    <edge id=":1261484529_10" function="internal">
        <lane id=":1261484529_10_0" index="0" allow="pedestrian delivery bicycle" speed="9.72" length="12.56" shape="1642.06,1036.41 1645.47,1035.44 1650.10,1034.17 1654.25,1033.48"/>
    </edge>
    <edge id=":1261484529_11" function="internal">
        <lane id=":1261484529_11_0" index="0" allow="pedestrian delivery bicycle" speed="3.65" length="2.59" shape="1638.03,1036.06 1638.12,1035.83 1637.64,1035.07 1636.36,1034.40"/>
    </edge>
    <edge id=":1261484532_0" function="internal">
        <lane id=":1261484532_0_0" index="0" allow="pedestrian delivery bicycle" speed="3.65" length="4.67" shape="1451.97,803.43 1450.70,802.73 1449.81,802.75 1449.29,803.48 1449.13,804.91"/>
    </edge>
    <edge id=":1261484536_0" function="internal">
        <lane id=":1261484536_0_0" index="0" allow="pedestrian delivery bicycle" speed="3.65" length="4.67" shape="1774.53,1082.95 1775.76,1083.71 1776.65,1083.74 1777.21,1083.05 1777.45,1081.62"/>
    </edge>
    <edge id=":1261484542_0" function="internal">
        <lane id=":1261484542_0_0" index="0" allow="pedestrian delivery bicycle" speed="13.89" length="9.40" shape="1486.31,869.01 1481.95,860.68"/>
    </edge>
    <edge id=":1261484542_1" function="internal">
        <lane id=":1261484542_1_0" index="0" allow="pedestrian delivery bicycle" speed="6.85" length="5.11" shape="1486.31,869.01 1484.67,866.73 1482.70,865.54"/>
    </edge>
    <edge id=":1261484542_2" function="internal">
        <lane id=":1261484542_2_0" index="0" allow="pedestrian delivery bicycle" speed="3.65" length="2.34" shape="1486.31,869.01 1485.04,868.31 1484.15,868.33"/>
    </edge>
    <edge id=":1261484542_9" function="internal">
        <lane id=":1261484542_9_0" index="0" allow="pedestrian delivery bicycle" speed="6.85" length="5.11" shape="1482.70,865.54 1480.40,865.42 1477.77,866.38"/>
    </edge>
    <edge id=":1261484542_10" function="internal">
        <lane id=":1261484542_10_0" index="0" allow="pedestrian delivery bicycle" speed="3.65" length="2.34" shape="1484.15,868.33 1483.63,869.06 1483.47,870.49"/>
    </edge>
    <edge id=":1261484542_3" function="internal">
        <lane id=":1261484542_3_0" index="0" allow="pedestrian delivery bicycle" speed="5.03" length="5.01" shape="1479.28,869.20 1480.57,868.73 1481.70,868.79 1482.67,869.37 1483.47,870.49"/>
    </edge>
    <edge id=":1261484542_4" function="internal">
        <lane id=":1261484542_4_0" index="0" allow="pedestrian delivery bicycle" speed="6.89" length="10.16" shape="1479.28,869.20 1481.54,867.55 1482.73,865.58 1482.87,863.29 1481.95,860.68"/>
    </edge>
    <edge id=":1261484542_5" function="internal">
        <lane id=":1261484542_5_0" index="0" allow="pedestrian delivery bicycle" speed="3.65" length="4.67" shape="1479.28,869.20 1479.96,867.93 1479.94,867.04 1479.20,866.52 1477.77,866.38"/>
    </edge>
    <edge id=":1261484542_6" function="internal">
        <lane id=":1261484542_6_0" index="0" allow="pedestrian delivery bicycle" speed="5.07" length="5.04" shape="1479.11,862.16 1479.57,863.45 1479.49,864.58 1478.89,865.56 1477.77,866.38"/>
    </edge>
    <edge id=":1261484542_7" function="internal">
        <lane id=":1261484542_7_0" index="0" allow="pedestrian delivery bicycle" speed="13.89" length="9.40" shape="1479.11,862.16 1483.47,870.49"/>
    </edge>
    <edge id=":1261484542_8" function="internal">
        <lane id=":1261484542_8_0" index="0" allow="pedestrian delivery bicycle" speed="3.65" length="2.34" shape="1479.11,862.16 1480.38,862.85 1481.27,862.84"/>
    </edge>
    <edge id=":1261484542_11" function="internal">
        <lane id=":1261484542_11_0" index="0" allow="pedestrian delivery bicycle" speed="3.65" length="2.34" shape="1481.27,862.84 1481.80,862.11 1481.95,860.68"/>
    </edge>
    <edge id=":1261484543_0" function="internal">
        <lane id=":1261484543_0_0" index="0" allow="pedestrian delivery bicycle" speed="10.88" length="7.78" shape="1613.68,1038.33 1611.64,1039.45 1610.18,1040.27 1608.67,1040.65 1606.46,1040.45"/>
    </edge>
    <edge id=":1261484543_1" function="internal">
        <lane id=":1261484543_1_0" index="0" allow="pedestrian delivery bicycle" speed="6.61" length="6.14" shape="1613.68,1038.33 1610.01,1040.64 1609.07,1042.18"/>
    </edge>
    <edge id=":1261484543_2" function="internal">
        <lane id=":1261484543_2_0" index="0" allow="pedestrian delivery bicycle" speed="3.65" length="2.34" shape="1613.68,1038.33 1612.95,1039.57 1612.93,1040.46"/>
    </edge>
    <edge id=":1261484543_9" function="internal">
        <lane id=":1261484543_9_0" index="0" allow="pedestrian delivery bicycle" speed="6.61" length="7.39" shape="1609.07,1042.18 1608.56,1043.01 1609.35,1045.42 1612.36,1047.87"/>
    </edge>
    <edge id=":1261484543_10" function="internal">
        <lane id=":1261484543_10_0" index="0" allow="pedestrian delivery bicycle" speed="3.65" length="2.34" shape="1612.93,1040.46 1613.64,1041.01 1615.06,1041.21"/>
    </edge>
    <edge id=":1261484543_3" function="internal">
        <lane id=":1261484543_3_0" index="0" allow="pedestrian delivery bicycle" speed="4.67" length="5.98" shape="1614.51,1045.43 1613.17,1044.34 1612.82,1043.28 1613.45,1042.23 1615.06,1041.21"/>
    </edge>
    <edge id=":1261484543_4" function="internal">
        <lane id=":1261484543_4_0" index="0" allow="pedestrian delivery bicycle" speed="9.72" length="9.61" shape="1614.51,1045.43 1612.20,1043.75 1610.71,1042.36 1609.11,1041.26 1606.46,1040.45"/>
    </edge>
    <edge id=":1261484543_5" function="internal">
        <lane id=":1261484543_5_0" index="0" allow="pedestrian delivery bicycle" speed="3.67" length="4.75" shape="1614.51,1045.43 1613.06,1045.24 1612.22,1045.58 1611.99,1046.46 1612.36,1047.87"/>
    </edge>
    <edge id=":1261484543_6" function="internal">
        <lane id=":1261484543_6_0" index="0" allow="pedestrian delivery bicycle" speed="9.72" length="7.92" shape="1605.85,1043.59 1608.01,1044.29 1609.29,1045.26 1610.48,1046.46 1612.36,1047.87"/>
    </edge>
    <edge id=":1261484543_7" function="internal">
        <lane id=":1261484543_7_0" index="0" allow="pedestrian delivery bicycle" speed="12.17" length="9.82" shape="1605.85,1043.59 1608.66,1043.89 1610.60,1043.51 1612.47,1042.58 1615.06,1041.21"/>
    </edge>
    <edge id=":1261484543_8" function="internal">
        <lane id=":1261484543_8_0" index="0" allow="pedestrian delivery bicycle" speed="3.65" length="2.50" shape="1605.85,1043.59 1607.18,1043.03 1607.73,1042.32 1607.68,1042.17"/>
    </edge>
    <edge id=":1261484543_11" function="internal">
        <lane id=":1261484543_11_0" index="0" allow="pedestrian delivery bicycle" speed="3.65" length="2.17" shape="1607.68,1042.17 1607.48,1041.46 1606.46,1040.45"/>
    </edge>
    <edge id=":1261484545_0" function="internal">
        <lane id=":1261484545_0_0" index="0" allow="pedestrian delivery bicycle" speed="3.65" length="4.67" shape="1803.49,1055.70 1804.71,1056.46 1805.61,1056.50 1806.17,1055.80 1806.40,1054.38"/>
    </edge>
    <edge id=":1261484554_0" function="internal">
        <lane id=":1261484554_0_0" index="0" allow="pedestrian delivery bicycle" speed="3.65" length="4.67" shape="1738.16,1087.74 1739.38,1088.51 1740.27,1088.55 1740.84,1087.86 1741.09,1086.44"/>
    </edge>
    <edge id=":1261484557_0" function="internal">
        <lane id=":1261484557_0_0" index="0" allow="pedestrian delivery bicycle" speed="13.89" length="9.97" shape="1706.62,1006.29 1704.18,1007.84 1702.85,1009.36 1701.62,1011.06 1699.52,1013.14"/>
    </edge>
    <edge id=":1261484557_1" function="internal">
        <lane id=":1261484557_1_0" index="0" allow="pedestrian delivery bicycle" speed="7.17" length="4.38" shape="1706.62,1006.29 1705.17,1007.61 1704.64,1009.70 1704.67,1009.95"/>
    </edge>
    <edge id=":1261484557_2" function="internal">
        <lane id=":1261484557_2_0" index="0" allow="pedestrian delivery bicycle" speed="3.74" length="2.10" shape="1706.62,1006.29 1706.38,1007.81 1706.57,1008.33"/>
    </edge>
    <edge id=":1261484557_9" function="internal">
        <lane id=":1261484557_9_0" index="0" allow="pedestrian delivery bicycle" speed="7.17" length="6.49" shape="1704.67,1009.95 1705.03,1012.56 1706.35,1016.18"/>
    </edge>
    <edge id=":1261484557_10" function="internal">
        <lane id=":1261484557_10_0" index="0" allow="pedestrian delivery bicycle" speed="3.74" length="2.91" shape="1706.57,1008.33 1706.72,1008.71 1707.64,1008.98 1709.14,1008.62"/>
    </edge>
    <edge id=":1261484557_3" function="internal">
        <lane id=":1261484557_3_0" index="0" allow="pedestrian delivery bicycle" speed="5.82" length="6.81" shape="1709.27,1014.88 1708.40,1012.54 1708.08,1010.72 1708.33,1009.41 1709.14,1008.62"/>
    </edge>
    <edge id=":1261484557_4" function="internal">
        <lane id=":1261484557_4_0" index="0" allow="pedestrian delivery bicycle" speed="6.85" length="12.13" shape="1709.27,1014.88 1707.48,1012.12 1705.26,1010.90 1702.60,1011.24 1699.52,1013.14"/>
    </edge>
    <edge id=":1261484557_5" function="internal">
        <lane id=":1261484557_5_0" index="0" allow="pedestrian delivery bicycle" speed="3.65" length="4.67" shape="1709.27,1014.88 1708.05,1014.11 1707.16,1014.07 1706.59,1014.76 1706.35,1016.18"/>
    </edge>
    <edge id=":1261484557_6" function="internal">
        <lane id=":1261484557_6_0" index="0" allow="pedestrian delivery bicycle" speed="4.88" length="5.53" shape="1701.91,1015.32 1703.31,1014.47 1704.51,1014.33 1705.53,1014.90 1706.35,1016.18"/>
    </edge>
    <edge id=":1261484557_7" function="internal">
        <lane id=":1261484557_7_0" index="0" allow="pedestrian delivery bicycle" speed="13.89" length="9.94" shape="1701.91,1015.32 1704.04,1013.27 1705.30,1011.62 1706.68,1010.14 1709.14,1008.62"/>
    </edge>
    <edge id=":1261484557_8" function="internal">
        <lane id=":1261484557_8_0" index="0" allow="pedestrian delivery bicycle" speed="3.66" length="2.36" shape="1701.91,1015.32 1702.13,1013.87 1701.80,1013.03"/>
    </edge>
    <edge id=":1261484557_11" function="internal">
        <lane id=":1261484557_11_0" index="0" allow="pedestrian delivery bicycle" speed="3.66" length="2.36" shape="1701.80,1013.03 1700.93,1012.78 1699.52,1013.14"/>
    </edge>
    <edge id=":1261484560_0" function="internal">
        <lane id=":1261484560_0_0" index="0" disallow="tram rail_urban rail rail_electric rail_fast ship" speed="7.51" length="10.66" shape="1626.32,853.80 1624.04,855.24 1621.66,855.67 1619.19,855.09 1616.62,853.51"/>
    </edge>
    <edge id=":1261484560_1" function="internal">
        <lane id=":1261484560_1_0" index="0" disallow="tram rail_urban rail rail_electric rail_fast ship" speed="13.89" length="15.20" shape="1626.32,853.80 1614.63,863.50"/>
    </edge>
    <edge id=":1261484560_2" function="internal">
        <lane id=":1261484560_2_0" index="0" disallow="tram rail_urban rail rail_electric rail_fast ship" speed="7.97" length="5.68" shape="1626.32,853.80 1623.76,856.76 1623.22,858.44"/>
    </edge>
    <edge id=":1261484560_3" function="internal">
        <lane id=":1261484560_3_0" index="0" disallow="tram rail_urban rail rail_electric rail_fast ship" speed="3.65" length="2.34" shape="1626.32,853.80 1625.94,855.19 1626.16,856.05"/>
    </edge>
    <edge id=":1261484560_16" function="internal">
        <lane id=":1261484560_16_0" index="0" disallow="tram rail_urban rail rail_electric rail_fast ship" speed="7.97" length="8.57" shape="1623.22,858.44 1622.78,859.82 1623.38,862.97 1625.56,866.22"/>
    </edge>
    <edge id=":1261484560_17" function="internal">
        <lane id=":1261484560_17_0" index="0" disallow="tram rail_urban rail rail_electric rail_fast ship" speed="3.65" length="2.34" shape="1626.16,856.05 1626.99,856.39 1628.42,856.21"/>
    </edge>
    <edge id=":1261484560_4" function="internal">
        <lane id=":1261484560_4_0" index="0" disallow="tram rail_urban rail rail_electric rail_fast ship" speed="6.47" length="9.03" shape="1627.94,864.09 1626.56,862.03 1626.18,860.03 1626.80,858.09 1628.42,856.21"/>
    </edge>
    <edge id=":1261484560_5" function="internal">
        <lane id=":1261484560_5_0" index="0" disallow="tram rail_urban rail rail_electric rail_fast ship" speed="13.89" length="15.50" shape="1627.94,864.09 1625.31,861.30 1622.49,858.57 1619.57,855.96 1616.62,853.51"/>
    </edge>
    <edge id=":1261484560_6" function="internal">
        <lane id=":1261484560_6_0" index="0" disallow="tram rail_urban rail rail_electric rail_fast ship" speed="8.40" length="14.99" shape="1627.94,864.09 1624.91,861.61 1621.68,860.69 1618.26,861.32 1614.63,863.50"/>
    </edge>
    <edge id=":1261484560_7" function="internal">
        <lane id=":1261484560_7_0" index="0" disallow="tram rail_urban rail rail_electric rail_fast ship" speed="3.65" length="4.67" shape="1627.94,864.09 1626.54,863.73 1625.68,863.96 1625.35,864.80 1625.56,866.22"/>
    </edge>
    <edge id=":1261484560_8" function="internal">
        <lane id=":1261484560_8_0" index="0" disallow="tram rail_urban rail rail_electric rail_fast ship" speed="6.98" length="10.06" shape="1616.61,866.01 1619.09,864.50 1621.40,864.03 1623.56,864.61 1625.56,866.22"/>
    </edge>
    <edge id=":1261484560_9" function="internal">
        <lane id=":1261484560_9_0" index="0" disallow="tram rail_urban rail rail_electric rail_fast ship" speed="13.89" length="15.34" shape="1616.61,866.01 1628.42,856.21"/>
    </edge>
    <edge id=":1261484560_10" function="internal">
        <lane id=":1261484560_10_0" index="0" disallow="tram rail_urban rail rail_electric rail_fast ship" speed="7.65" length="6.29" shape="1616.61,866.01 1619.56,862.89 1620.16,860.98"/>
    </edge>
    <edge id=":1261484560_11" function="internal">
        <lane id=":1261484560_11_0" index="0" disallow="tram rail_urban rail rail_electric rail_fast ship" speed="3.65" length="2.34" shape="1616.61,866.01 1617.06,864.63 1616.87,863.76"/>
    </edge>
    <edge id=":1261484560_18" function="internal">
        <lane id=":1261484560_18_0" index="0" disallow="tram rail_urban rail rail_electric rail_fast ship" speed="7.65" length="8.85" shape="1620.16,860.98 1620.55,859.76 1619.57,856.64 1616.62,853.51"/>
    </edge>
    <edge id=":1261484560_19" function="internal">
        <lane id=":1261484560_19_0" index="0" disallow="tram rail_urban rail rail_electric rail_fast ship" speed="3.65" length="2.34" shape="1616.87,863.76 1616.06,863.38 1614.63,863.50"/>
    </edge>
    <edge id=":1261484560_12" function="internal">
        <lane id=":1261484560_12_0" index="0" disallow="tram rail_urban rail rail_electric rail_fast ship" speed="6.07" length="9.07" shape="1614.63,856.02 1616.39,857.89 1616.98,859.76 1616.39,861.63 1614.63,863.50"/>
    </edge>
    <edge id=":1261484560_13" function="internal">
        <lane id=":1261484560_13_0" index="0" disallow="tram rail_urban rail rail_electric rail_fast ship" speed="13.89" length="14.97" shape="1614.63,856.02 1617.52,858.40 1620.31,860.89 1622.99,863.50 1625.56,866.22"/>
    </edge>
    <edge id=":1261484560_14" function="internal">