<?xml version="1.0" encoding="UTF-8"?>

<routes xmlns:xsi="http://www.w3.org/2001/XMLSchema-instance" xsi:noNamespaceSchemaLocation="http://sumo.dlr.de/xsd/routes_file.xsd">
    <vType id="veh_passenger" vClass="passenger"/>
    <trip id="veh1" type="veh_passenger" depart="00.00" departLane="best" from="61047423" to="61047423"/>
    <trip id="veh2" type="veh_passenger" depart="00.00" departLane="best" from="61047423" to="61047423"/>
    <trip id="veh3" type="veh_passenger" depart="00.00" departLane="best" from="61047423" to="61047423"/>
    <trip id="veh4" type="veh_passenger" depart="00.00" departLane="best" from="61047423" to="61047423"/>
    <trip id="veh5" type="veh_passenger" depart="00.00" departLane="best" from="61047423" to="61047423"/>
    <trip id="veh6" type="veh_passenger" depart="00.00" departLane="best" from="61047423" to="61047423"/>
    <trip id="veh7" type="veh_passenger" depart="00.00" departLane="best" from="61047423" to="61047423"/>
    <trip id="veh8" type="veh_passenger" depart="00.00" departLane="best" from="61047423" to="61047423"/>
    <trip id="veh9" type="veh_passenger" depart="00.00" departLane="best" from="61047423" to="61047423"/>
    <trip id="veh10" type="veh_passenger" depart="00.00" departLane="best" from="61047423" to="61047423"/>

    <trip id="veh76" type="veh_passenger" depart="00.00" departLane="best" from="260858269" to="260858269"/>
    <trip id="veh77" type="veh_passenger" depart="00.00" departLane="best" from="260858269" to="260858269"/>
    <trip id="veh78" type="veh_passenger" depart="00.00" departLane="best" from="260858269" to="260858269"/>
    <trip id="veh79" type="veh_passenger" depart="00.00" departLane="best" from="260858269" to="260858269"/>
    <trip id="veh80" type="veh_passenger" depart="00.00" departLane="best" from="260858269" to="260858269"/>
    <trip id="veh81" type="veh_passenger" depart="00.00" departLane="best" from="260858269" to="260858269"/>
    <trip id="veh82" type="veh_passenger" depart="00.00" departLane="best" from="260858269" to="260858269"/>
    <trip id="veh83" type="veh_passenger" depart="00.00" departLane="best" from="260858269" to="260858269"/>
    <trip id="veh84" type="veh_passenger" depart="00.00" departLane="best" from="260858269" to="260858269"/>
    <trip id="veh85" type="veh_passenger" depart="00.00" departLane="best" from="260858269" to="260858269"/>

    <trip id="veh11" type="veh_passenger" depart="05.00" departLane="best" from="61047423" to="61047423"/>
    <trip id="veh12" type="veh_passenger" depart="05.00" departLane="best" from="61047423" to="61047423"/>
    <trip id="veh13" type="veh_passenger" depart="05.00" departLane="best" from="61047423" to="61047423"/>
    <trip id="veh14" type="veh_passenger" depart="05.00" departLane="best" from="61047423" to="61047423"/>
    <trip id="veh15" type="veh_passenger" depart="05.00" departLane="best" from="61047423" to="61047423"/>
    <trip id="veh16" type="veh_passenger" depart="05.00" departLane="best" from="61047423" to="61047423"/>
    <trip id="veh17" type="veh_passenger" depart="05.00" departLane="best" from="61047423" to="61047423"/>
    <trip id="veh18" type="veh_passenger" depart="05.00" departLane="best" from="61047423" to="61047423"/>
    <trip id="veh19" type="veh_passenger" depart="05.00" departLane="best" from="61047423" to="61047423"/>
    <trip id="veh20" type="veh_passenger" depart="05.00" departLane="best" from="61047423" to="61047423"/>

    <trip id="veh86" type="veh_passenger" depart="05.00" departLane="best" from="260858269" to="260858269"/>
    <trip id="veh87" type="veh_passenger" depart="05.00" departLane="best" from="260858269" to="260858269"/>
    <trip id="veh88" type="veh_passenger" depart="05.00" departLane="best" from="260858269" to="260858269"/>
    <trip id="veh89" type="veh_passenger" depart="05.00" departLane="best" from="260858269" to="260858269"/>
    <trip id="veh90" type="veh_passenger" depart="05.00" departLane="best" from="260858269" to="260858269"/>
    <trip id="veh91" type="veh_passenger" depart="05.00" departLane="best" from="260858269" to="260858269"/>
    <trip id="veh92" type="veh_passenger" depart="05.00" departLane="best" from="260858269" to="260858269"/>
    <trip id="veh93" type="veh_passenger" depart="05.00" departLane="best" from="260858269" to="260858269"/>
    <trip id="veh94" type="veh_passenger" depart="05.00" departLane="best" from="260858269" to="260858269"/>
    <trip id="veh95" type="veh_passenger" depart="05.00" departLane="best" from="260858269" to="260858269"/>

    <trip id="veh21" type="veh_passenger" depart="10.00" departLane="best" from="61047423" to="61047423"/>
    <trip id="veh22" type="veh_passenger" depart="10.00" departLane="best" from="61047423" to="61047423"/>
    <trip id="veh23" type="veh_passenger" depart="10.00" departLane="best" from="61047423" to="61047423"/>
    <trip id="veh24" type="veh_passenger" depart="10.00" departLane="best" from="61047423" to="61047423"/>
    <trip id="veh25" type="veh_passenger" depart="10.00" departLane="best" from="61047423" to="61047423"/>
    <trip id="veh26" type="veh_passenger" depart="10.00" departLane="best" from="61047423" to="61047423"/>
    <trip id="veh27" type="veh_passenger" depart="10.00" departLane="best" from="61047423" to="61047423"/>
    <trip id="veh28" type="veh_passenger" depart="10.00" departLane="best" from="61047423" to="61047423"/>
    <trip id="veh29" type="veh_passenger" depart="10.00" departLane="best" from="61047423" to="61047423"/>
    <trip id="veh30" type="veh_passenger" depart="10.00" departLane="best" from="61047423" to="61047423"/>

    <trip id="veh96" type="veh_passenger" depart="10.00" departLane="best" from="260858269" to="260858269"/>
    <trip id="veh97" type="veh_passenger" depart="10.00" departLane="best" from="260858269" to="260858269"/>
    <trip id="veh98" type="veh_passenger" depart="10.00" departLane="best" from="260858269" to="260858269"/>
    <trip id="veh99" type="veh_passenger" depart="10.00" departLane="best" from="260858269" to="260858269"/>
    <trip id="veh100" type="veh_passenger" depart="10.00" departLane="best" from="260858269" to="260858269"/>
    <trip id="veh101" type="veh_passenger" depart="10.00" departLane="best" from="260858269" to="260858269"/>
    <trip id="veh102" type="veh_passenger" depart="10.00" departLane="best" from="260858269" to="260858269"/>
    <trip id="veh103" type="veh_passenger" depart="10.00" departLane="best" from="260858269" to="260858269"/>
    <trip id="veh104" type="veh_passenger" depart="10.00" departLane="best" from="260858269" to="260858269"/>
    <trip id="veh105" type="veh_passenger" depart="10.00" departLane="best" from="260858269" to="260858269"/>

    <trip id="veh31" type="veh_passenger" depart="15.00" departLane="best" from="61047423" to="61047423"/>
    <trip id="veh32" type="veh_passenger" depart="15.00" departLane="best" from="61047423" to="61047423"/>
    <trip id="veh33" type="veh_passenger" depart="15.00" departLane="best" from="61047423" to="61047423"/>
    <trip id="veh34" type="veh_passenger" depart="15.00" departLane="best" from="61047423" to="61047423"/>
    <trip id="veh35" type="veh_passenger" depart="15.00" departLane="best" from="61047423" to="61047423"/>
    <trip id="veh36" type="veh_passenger" depart="15.00" departLane="best" from="61047423" to="61047423"/>
    <trip id="veh37" type="veh_passenger" depart="15.00" departLane="best" from="61047423" to="61047423"/>
    <trip id="veh38" type="veh_passenger" depart="15.00" departLane="best" from="61047423" to="61047423"/>
    <trip id="veh39" type="veh_passenger" depart="15.00" departLane="best" from="61047423" to="61047423"/>
    <trip id="veh40" type="veh_passenger" depart="15.00" departLane="best" from="61047423" to="61047423"/>

    <trip id="veh106" type="veh_passenger" depart="15.00" departLane="best" from="260858269" to="260858269"/>
    <trip id="veh107" type="veh_passenger" depart="15.00" departLane="best" from="260858269" to="260858269"/>
    <trip id="veh108" type="veh_passenger" depart="15.00" departLane="best" from="260858269" to="260858269"/>
    <trip id="veh109" type="veh_passenger" depart="15.00" departLane="best" from="260858269" to="260858269"/>
    <trip id="veh110" type="veh_passenger" depart="15.00" departLane="best" from="260858269" to="260858269"/>
    <trip id="veh111" type="veh_passenger" depart="15.00" departLane="best" from="260858269" to="260858269"/>
    <trip id="veh112" type="veh_passenger" depart="15.00" departLane="best" from="260858269" to="260858269"/>
    <trip id="veh113" type="veh_passenger" depart="15.00" departLane="best" from="260858269" to="260858269"/>
    <trip id="veh114" type="veh_passenger" depart="15.00" departLane="best" from="260858269" to="260858269"/>
    <trip id="veh115" type="veh_passenger" depart="15.00" departLane="best" from="260858269" to="260858269"/>

    <trip id="veh41" type="veh_passenger" depart="20.00" departLane="best" from="61047423" to="61047423"/>
    <trip id="veh42" type="veh_passenger" depart="20.00" departLane="best" from="61047423" to="61047423"/>
    <trip id="veh43" type="veh_passenger" depart="20.00" departLane="best" from="61047423" to="61047423"/>
    <trip id="veh44" type="veh_passenger" depart="20.00" departLane="best" from="61047423" to="61047423"/>
    <trip id="veh45" type="veh_passenger" depart="20.00" departLane="best" from="61047423" to="61047423"/>
    <trip id="veh46" type="veh_passenger" depart="20.00" departLane="best" from="61047423" to="61047423"/>
    <trip id="veh47" type="veh_passenger" depart="20.00" departLane="best" from="61047423" to="61047423"/>
    <trip id="veh48" type="veh_passenger" depart="20.00" departLane="best" from="61047423" to="61047423"/>
    <trip id="veh49" type="veh_passenger" depart="20.00" departLane="best" from="61047423" to="61047423"/>
    <trip id="veh50" type="veh_passenger" depart="20.00" departLane="best" from="61047423" to="61047423"/>

    <trip id="veh116" type="veh_passenger" depart="20.00" departLane="best" from="260858269" to="260858269"/>
    <trip id="veh117" type="veh_passenger" depart="20.00" departLane="best" from="260858269" to="260858269"/>
    <trip id="veh118" type="veh_passenger" depart="20.00" departLane="best" from="260858269" to="260858269"/>
    <trip id="veh119" type="veh_passenger" depart="20.00" departLane="best" from="260858269" to="260858269"/>
    <trip id="veh120" type="veh_passenger" depart="20.00" departLane="best" from="260858269" to="260858269"/>
    <trip id="veh121" type="veh_passenger" depart="20.00" departLane="best" from="260858269" to="260858269"/>
    <trip id="veh122" type="veh_passenger" depart="20.00" departLane="best" from="260858269" to="260858269"/>
    <trip id="veh123" type="veh_passenger" depart="20.00" departLane="best" from="260858269" to="260858269"/>
    <trip id="veh124" type="veh_passenger" depart="20.00" departLane="best" from="260858269" to="260858269"/>
    <trip id="veh125" type="veh_passenger" depart="20.00" departLane="best" from="260858269" to="260858269"/>

    <trip id="veh51" type="veh_passenger" depart="25.00" departLane="best" from="61047423" to="61047423"/>
    <trip id="veh52" type="veh_passenger" depart="25.00" departLane="best" from="61047423" to="61047423"/>
    <trip id="veh53" type="veh_passenger" depart="25.00" departLane="best" from="61047423" to="61047423"/>
    <trip id="veh54" type="veh_passenger" depart="25.00" departLane="best" from="61047423" to="61047423"/>
    <trip id="veh55" type="veh_passenger" depart="25.00" departLane="best" from="61047423" to="61047423"/>
    <trip id="veh56" type="veh_passenger" depart="25.00" departLane="best" from="61047423" to="61047423"/>
    <trip id="veh57" type="veh_passenger" depart="25.00" departLane="best" from="61047423" to="61047423"/>
    <trip id="veh58" type="veh_passenger" depart="25.00" departLane="best" from="61047423" to="61047423"/>
    <trip id="veh59" type="veh_passenger" depart="25.00" departLane="best" from="61047423" to="61047423"/>
    <trip id="veh60" type="veh_passenger" depart="25.00" departLane="best" from="61047423" to="61047423"/>

    <trip id="veh126" type="veh_passenger" depart="25.00" departLane="best" from="260858269" to="260858269"/>
    <trip id="veh127" type="veh_passenger" depart="25.00" departLane="best" from="260858269" to="260858269"/>
    <trip id="veh128" type="veh_passenger" depart="25.00" departLane="best" from="260858269" to="260858269"/>
    <trip id="veh129" type="veh_passenger" depart="25.00" departLane="best" from="260858269" to="260858269"/>
    <trip id="veh130" type="veh_passenger" depart="25.00" departLane="best" from="260858269" to="260858269"/>
    <trip id="veh131" type="veh_passenger" depart="25.00" departLane="best" from="260858269" to="260858269"/>
    <trip id="veh132" type="veh_passenger" depart="25.00" departLane="best" from="260858269" to="260858269"/>
    <trip id="veh133" type="veh_passenger" depart="25.00" departLane="best" from="260858269" to="260858269"/>
    <trip id="veh134" type="veh_passenger" depart="25.00" departLane="best" from="260858269" to="260858269"/>
    <trip id="veh135" type="veh_passenger" depart="25.00" departLane="best" from="260858269" to="260858269"/>

    <trip id="veh61" type="veh_passenger" depart="30.00" departLane="best" from="61047423" to="61047423"/>
    <trip id="veh62" type="veh_passenger" depart="30.00" departLane="best" from="61047423" to="61047423"/>
    <trip id="veh63" type="veh_passenger" depart="30.00" departLane="best" from="61047423" to="61047423"/>
    <trip id="veh64" type="veh_passenger" depart="30.00" departLane="best" from="61047423" to="61047423"/>
    <trip id="veh65" type="veh_passenger" depart="30.00" departLane="best" from="61047423" to="61047423"/>
    <trip id="veh66" type="veh_passenger" depart="30.00" departLane="best" from="61047423" to="61047423"/>
    <trip id="veh67" type="veh_passenger" depart="30.00" departLane="best" from="61047423" to="61047423"/>
    <trip id="veh68" type="veh_passenger" depart="30.00" departLane="best" from="61047423" to="61047423"/>
    <trip id="veh69" type="veh_passenger" depart="30.00" departLane="best" from="61047423" to="61047423"/>
    <trip id="veh70" type="veh_passenger" depart="30.00" departLane="best" from="61047423" to="61047423"/>
    
    <trip id="veh136" type="veh_passenger" depart="30.00" departLane="best" from="260858269" to="260858269"/>
    <trip id="veh137" type="veh_passenger" depart="30.00" departLane="best" from="260858269" to="260858269"/>
    <trip id="veh138" type="veh_passenger" depart="30.00" departLane="best" from="260858269" to="260858269"/>
    <trip id="veh139" type="veh_passenger" depart="30.00" departLane="best" from="260858269" to="260858269"/>
    <trip id="veh140" type="veh_passenger" depart="30.00" departLane="best" from="260858269" to="260858269"/>
    <trip id="veh141" type="veh_passenger" depart="30.00" departLane="best" from="260858269" to="260858269"/>
    <trip id="veh142" type="veh_passenger" depart="30.00" departLane="best" from="260858269" to="260858269"/>
    <trip id="veh143" type="veh_passenger" depart="30.00" departLane="best" from="260858269" to="260858269"/>
    <trip id="veh144" type="veh_passenger" depart="30.00" departLane="best" from="260858269" to="260858269"/>
    <trip id="veh145" type="veh_passenger" depart="30.00" departLane="best" from="260858269" to="260858269"/>

    <trip id="veh71" type="veh_passenger" depart="35.00" departLane="best" from="61047423" to="61047423"/>
    <trip id="veh72" type="veh_passenger" depart="35.00" departLane="best" from="61047423" to="61047423"/>
    <trip id="veh73" type="veh_passenger" depart="35.00" departLane="best" from="61047423" to="61047423"/>
    <trip id="veh74" type="veh_passenger" depart="35.00" departLane="best" from="61047423" to="61047423"/>
    <trip id="veh75" type="veh_passenger" depart="35.00" departLane="best" from="61047423" to="61047423"/>

    <trip id="veh146" type="veh_passenger" depart="35.00" departLane="best" from="260858269" to="260858269"/>
    <trip id="veh147" type="veh_passenger" depart="35.00" departLane="best" from="260858269" to="260858269"/>
    <trip id="veh148" type="veh_passenger" depart="35.00" departLane="best" from="260858269" to="260858269"/>
    <trip id="veh149" type="veh_passenger" depart="35.00" departLane="best" from="260858269" to="260858269"/>
    <trip id="veh150" type="veh_passenger" depart="35.00" departLane="best" from="260858269" to="260858269"/>
</routes>
