<?xml version="1.0" encoding="UTF-8"?>

<routes xmlns:xsi="http://www.w3.org/2001/XMLSchema-instance" xsi:noNamespaceSchemaLocation="http://sumo.dlr.de/xsd/routes_file.xsd">
    <vType id="veh_passenger" vClass="passenger"/>
    <trip id="veh1" type="veh_passenger" depart="00.00" departLane="best" from="61047423" to="61047423"/>
    <trip id="veh2" type="veh_passenger" depart="00.00" departLane="best" from="61047423" to="61047423"/>
    <trip id="veh3" type="veh_passenger" depart="00.00" departLane="best" from="61047423" to="61047423"/>
    <trip id="veh4" type="veh_passenger" depart="00.00" departLane="best" from="61047423" to="61047423"/>
    <trip id="veh5" type="veh_passenger" depart="00.00" departLane="best" from="61047423" to="61047423"/>

    <trip id="veh6" type="veh_passenger" depart="00.00" departLane="best" from="260858269" to="260858269"/>
    <trip id="veh7" type="veh_passenger" depart="00.00" departLane="best" from="260858269" to="260858269"/>
    <trip id="veh8" type="veh_passenger" depart="00.00" departLane="best" from="260858269" to="260858269"/>
    <trip id="veh9" type="veh_passenger" depart="00.00" departLane="best" from="260858269" to="260858269"/>
    <trip id="veh10" type="veh_passenger" depart="00.00" departLane="best" from="260858269" to="260858269"/>

    <trip id="veh11" type="veh_passenger" depart="15.00" departLane="best" from="61047423" to="61047423"/>
    <trip id="veh12" type="veh_passenger" depart="15.00" departLane="best" from="61047423" to="61047423"/>
    <trip id="veh13" type="veh_passenger" depart="15.00" departLane="best" from="61047423" to="61047423"/>
    <trip id="veh14" type="veh_passenger" depart="15.00" departLane="best" from="61047423" to="61047423"/>
    <trip id="veh15" type="veh_passenger" depart="15.00" departLane="best" from="61047423" to="61047423"/>

    <trip id="veh16" type="veh_passenger" depart="15.00" departLane="best" from="260858269" to="260858269"/>
    <trip id="veh17" type="veh_passenger" depart="15.00" departLane="best" from="260858269" to="260858269"/>
    <trip id="veh18" type="veh_passenger" depart="15.00" departLane="best" from="260858269" to="260858269"/>
    <trip id="veh19" type="veh_passenger" depart="15.00" departLane="best" from="260858269" to="260858269"/>
    <trip id="veh20" type="veh_passenger" depart="15.00" departLane="best" from="260858269" to="260858269"/>

    <trip id="veh21" type="veh_passenger" depart="30.00" departLane="best" from="61047423" to="61047423"/>
    <trip id="veh22" type="veh_passenger" depart="30.00" departLane="best" from="61047423" to="61047423"/>
    <trip id="veh23" type="veh_passenger" depart="30.00" departLane="best" from="61047423" to="61047423"/>
    <trip id="veh24" type="veh_passenger" depart="30.00" departLane="best" from="61047423" to="61047423"/>
    <trip id="veh25" type="veh_passenger" depart="30.00" departLane="best" from="61047423" to="61047423"/>
    
    <trip id="veh26" type="veh_passenger" depart="30.00" departLane="best" from="260858269" to="260858269"/>
    <trip id="veh27" type="veh_passenger" depart="30.00" departLane="best" from="260858269" to="260858269"/>
    <trip id="veh28" type="veh_passenger" depart="30.00" departLane="best" from="260858269" to="260858269"/>
    <trip id="veh29" type="veh_passenger" depart="30.00" departLane="best" from="260858269" to="260858269"/>
    <trip id="veh30" type="veh_passenger" depart="30.00" departLane="best" from="260858269" to="260858269"/>
</routes>
